BEM
 OpenBabel09132604103D

 33 34  0  0  1  0  0  0  0  0999 V2000
  -35.6340   13.0400  -16.1590 O   0  0  0  0  0  0  0  0  0  0  0  0
  -36.3890   13.9730  -15.3970 C   0  0  2  0  0  3  0  0  0  0  0  0
  -37.7330   13.3590  -14.9390 C   0  0  2  0  0  3  0  0  0  0  0  0
  -38.6460   13.1100  -16.1510 C   0  0  2  0  0  3  0  0  0  0  0  0
  -38.7580   14.3830  -17.0040 C   0  0  1  0  0  3  0  0  0  0  0  0
  -37.3450   14.9090  -17.3320 C   0  0  2  0  0  3  0  0  0  0  0  0
  -36.6050   15.1590  -16.1480 O   0  0  0  0  0  0  0  0  0  0  0  0
  -38.3720   14.2280  -14.0380 O   0  0  0  0  0  0  0  0  0  0  0  0
  -37.7990   15.0350  -13.9610 H   0  0  0  0  0  0  0  0  0  0  0  0
  -39.9240   12.7150  -15.7240 O   0  0  0  0  0  0  0  0  0  0  0  0
  -40.1980   11.9570  -16.3050 H   0  0  0  0  0  0  0  0  0  0  0  0
  -39.4410   14.0970  -18.1990 O   0  0  0  0  0  0  0  0  0  0  0  0
  -39.6070   13.1180  -18.2080 H   0  0  0  0  0  0  0  0  0  0  0  0
  -37.4430   16.1870  -18.1130 C   0  0  0  0  0  0  0  0  0  0  0  0
  -36.3980   16.8070  -18.4480 O   0  0  0  0  0  0  0  0  0  0  0  0
  -38.6930   16.7060  -18.4380 O   0  0  0  0  0  0  0  0  0  0  0  0
  -39.3670   16.1510  -18.9520 H   0  0  0  0  0  0  0  0  0  0  0  0
  -32.7080   11.8210  -13.5240 C   0  0  2  0  0  3  0  0  0  0  0  0
  -32.6740   13.3380  -13.8440 C   0  0  2  0  0  3  0  0  0  0  0  0
  -33.9390   13.7720  -14.6160 C   0  0  2  0  0  3  0  0  0  0  0  0
  -34.4600   12.6140  -15.4820 C   0  0  1  0  0  3  0  0  0  0  0  0
  -34.7940   11.4080  -14.5510 C   0  0  2  0  0  3  0  0  0  0  0  0
  -34.0390   11.3670  -13.3430 O   0  0  0  0  0  0  0  0  0  0  0  0
  -31.9580   11.5540  -12.3690 O   0  0  0  0  0  0  0  0  0  0  0  0
  -32.3020   10.7050  -11.9850 H   0  0  0  0  0  0  0  0  0  0  0  0
  -31.5230   13.6310  -14.5970 O   0  0  0  0  0  0  0  0  0  0  0  0
  -31.0520   14.3680  -14.1270 H   0  0  0  0  0  0  0  0  0  0  0  0
  -33.6570   14.8950  -15.4150 O   0  0  0  0  0  0  0  0  0  0  0  0
  -33.2500   15.5790  -14.8210 H   0  0  0  0  0  0  0  0  0  0  0  0
  -34.6990   10.0880  -15.2660 C   0  0  0  0  0  0  0  0  0  0  0  0
  -34.6110    9.0190  -14.6030 O   0  0  0  0  0  0  0  0  0  0  0  0
  -34.6820   10.0370  -16.6570 O   0  0  0  0  0  0  0  0  0  0  0  0
  -35.3650   10.5470  -17.2040 H   0  0  0  0  0  0  0  0  0  0  0  0
  2  1  1  6  0  0  0
  2  3  1  0  0  0  0
  3  8  1  1  0  0  0
  4 10  1  1  0  0  0
  4  3  1  0  0  0  0
  5 12  1  6  0  0  0
  5  4  1  0  0  0  0
  6 14  1  1  0  0  0
  6  5  1  0  0  0  0
  6  7  1  0  0  0  0
  7  2  1  0  0  0  0
  8  9  1  0  0  0  0
 11 10  1  0  0  0  0
 13 12  1  0  0  0  0
 15 14  2  0  0  0  0
 16 14  1  0  0  0  0
 17 16  1  0  0  0  0
 18 23  1  0  0  0  0
 18 24  1  1  0  0  0
 19 26  1  6  0  0  0
 19 18  1  0  0  0  0
 20 28  1  6  0  0  0
 20 19  1  0  0  0  0
 21  1  1  1  0  0  0
 21 20  1  0  0  0  0
 21 22  1  0  0  0  0
 22 30  1  6  0  0  0
 22 23  1  0  0  0  0
 24 25  1  0  0  0  0
 26 27  1  0  0  0  0
 28 29  1  0  0  0  0
 30 31  2  0  0  0  0
 32 30  1  0  0  0  0
 33 32  1  0  0  0  0
M  END
>  <MODEL>
18

>  <REMARK>
 VINA RESULT:    -6.140      2.443      6.039
 INTER + INTRA:         -10.301
 INTER:                  -9.445
 INTRA:                  -0.855
 UNBOUND:                -1.289
  Name = BEM
  12 active torsions:
  status: ('A' for Active; 'I' for Inactive)
    1  A    between atoms: C_1  and  O_20
    2  A    between atoms: C_2  and  O_3
    3  A    between atoms: C_4  and  O_5
    4  A    between atoms: C_6  and  O_7
    5  A    between atoms: C_8  and  C_10
    6  A    between atoms: C_10  and  O_11
    7  A    between atoms: C_13  and  O_14
    8  A    between atoms: C_15  and  O_16
    9  A    between atoms: C_17  and  O_18
   10  A    between atoms: C_19  and  O_20
   11  A    between atoms: C_21  and  C_23
   12  A    between atoms: C_23  and  O_25
                            x       y       z     vdW  Elec       q    Type
                         _______ _______ _______ _____ _____    ______ ____

>  <TORSDO>
F 12

$$$$
