BEM
 OpenBabel09132604103D

 33 34  0  0  1  0  0  0  0  0999 V2000
  -34.7840   13.2200  -16.3090 O   0  0  0  0  0  0  0  0  0  0  0  0
  -34.9630   13.2070  -14.8990 C   0  0  2  0  0  3  0  0  0  0  0  0
  -33.8620   14.0320  -14.1910 C   0  0  2  0  0  3  0  0  0  0  0  0
  -32.4950   13.3470  -14.3550 C   0  0  2  0  0  3  0  0  0  0  0  0
  -32.5850   11.8700  -13.9380 C   0  0  1  0  0  3  0  0  0  0  0  0
  -33.7600   11.1980  -14.6790 C   0  0  2  0  0  3  0  0  0  0  0  0
  -34.9810   11.8710  -14.4190 O   0  0  0  0  0  0  0  0  0  0  0  0
  -34.1650   14.1580  -12.8250 O   0  0  0  0  0  0  0  0  0  0  0  0
  -33.3750   14.5760  -12.3930 H   0  0  0  0  0  0  0  0  0  0  0  0
  -31.5280   13.9990  -13.5730 O   0  0  0  0  0  0  0  0  0  0  0  0
  -31.6160   14.9700  -13.7610 H   0  0  0  0  0  0  0  0  0  0  0  0
  -31.3870   11.2100  -14.2610 O   0  0  0  0  0  0  0  0  0  0  0  0
  -31.4090   10.3310  -13.8010 H   0  0  0  0  0  0  0  0  0  0  0  0
  -33.8970    9.7710  -14.2330 C   0  0  0  0  0  0  0  0  0  0  0  0
  -33.3470    9.3850  -13.1660 O   0  0  0  0  0  0  0  0  0  0  0  0
  -34.6020    8.8650  -15.0180 O   0  0  0  0  0  0  0  0  0  0  0  0
  -35.5900    8.7010  -14.8610 H   0  0  0  0  0  0  0  0  0  0  0  0
  -38.6920   13.4610  -17.5960 C   0  0  2  0  0  3  0  0  0  0  0  0
  -38.1850   12.0090  -17.3950 C   0  0  2  0  0  3  0  0  0  0  0  0
  -36.8220   11.9920  -16.6690 C   0  0  2  0  0  3  0  0  0  0  0  0
  -36.0190   13.2580  -17.0100 C   0  0  1  0  0  3  0  0  0  0  0  0
  -36.8430   14.5050  -16.5630 C   0  0  2  0  0  3  0  0  0  0  0  0
  -38.2550   14.3050  -16.5450 O   0  0  0  0  0  0  0  0  0  0  0  0
  -40.0950   13.4770  -17.6600 O   0  0  0  0  0  0  0  0  0  0  0  0
  -40.4100   12.5690  -17.4140 H   0  0  0  0  0  0  0  0  0  0  0  0
  -38.0750   11.3760  -18.6460 O   0  0  0  0  0  0  0  0  0  0  0  0
  -38.4450   10.4610  -18.5380 H   0  0  0  0  0  0  0  0  0  0  0  0
  -36.0980   10.8400  -17.0260 O   0  0  0  0  0  0  0  0  0  0  0  0
  -35.4430   11.1120  -17.7200 H   0  0  0  0  0  0  0  0  0  0  0  0
  -36.5040   15.7330  -17.3650 C   0  0  0  0  0  0  0  0  0  0  0  0
  -36.2680   16.8220  -16.7750 O   0  0  0  0  0  0  0  0  0  0  0  0
  -36.4750   15.6830  -18.7550 O   0  0  0  0  0  0  0  0  0  0  0  0
  -36.0980   14.8760  -19.2380 H   0  0  0  0  0  0  0  0  0  0  0  0
  2  1  1  6  0  0  0
  2  7  1  0  0  0  0
  2  3  1  0  0  0  0
  3  8  1  1  0  0  0
  4  3  1  0  0  0  0
  4  5  1  0  0  0  0
  4 10  1  1  0  0  0
  5 12  1  6  0  0  0
  6  7  1  0  0  0  0
  6 14  1  1  0  0  0
  6  5  1  0  0  0  0
  8  9  1  0  0  0  0
 11 10  1  0  0  0  0
 12 13  1  0  0  0  0
 14 15  2  0  0  0  0
 16 17  1  0  0  0  0
 16 14  1  0  0  0  0
 18 24  1  1  0  0  0
 18 19  1  0  0  0  0
 18 23  1  0  0  0  0
 19 26  1  6  0  0  0
 19 20  1  0  0  0  0
 20 28  1  6  0  0  0
 21 20  1  0  0  0  0
 21 22  1  0  0  0  0
 21  1  1  1  0  0  0
 22 30  1  6  0  0  0
 22 23  1  0  0  0  0
 24 25  1  0  0  0  0
 26 27  1  0  0  0  0
 29 28  1  0  0  0  0
 30 31  2  0  0  0  0
 32 30  1  0  0  0  0
 33 32  1  0  0  0  0
M  END
>  <MODEL>
11

>  <REMARK>
 VINA RESULT:    -6.400      1.988      3.774
 INTER + INTRA:         -10.682
 INTER:                  -9.675
 INTRA:                  -1.008
 UNBOUND:                -1.289
  Name = BEM
  12 active torsions:
  status: ('A' for Active; 'I' for Inactive)
    1  A    between atoms: C_1  and  O_20
    2  A    between atoms: C_2  and  O_3
    3  A    between atoms: C_4  and  O_5
    4  A    between atoms: C_6  and  O_7
    5  A    between atoms: C_8  and  C_10
    6  A    between atoms: C_10  and  O_11
    7  A    between atoms: C_13  and  O_14
    8  A    between atoms: C_15  and  O_16
    9  A    between atoms: C_17  and  O_18
   10  A    between atoms: C_19  and  O_20
   11  A    between atoms: C_21  and  C_23
   12  A    between atoms: C_23  and  O_25
                            x       y       z     vdW  Elec       q    Type
                         _______ _______ _______ _____ _____    ______ ____

>  <TORSDO>
F 12

$$$$
