BEM
 OpenBabel09132604103D

 33 34  0  0  1  0  0  0  0  0999 V2000
  -35.3840   12.4200  -15.7800 O   0  0  0  0  0  0  0  0  0  0  0  0
  -35.9480   12.7810  -17.0340 C   0  0  2  0  0  3  0  0  0  0  0  0
  -37.4940   12.7410  -16.9810 C   0  0  2  0  0  3  0  0  0  0  0  0
  -37.9840   11.2930  -16.8040 C   0  0  2  0  0  3  0  0  0  0  0  0
  -37.3350   10.3790  -17.8550 C   0  0  1  0  0  3  0  0  0  0  0  0
  -35.8040   10.5720  -17.8300 C   0  0  2  0  0  3  0  0  0  0  0  0
  -35.4560   11.9290  -18.0570 O   0  0  0  0  0  0  0  0  0  0  0  0
  -38.0260   13.2770  -18.1660 O   0  0  0  0  0  0  0  0  0  0  0  0
  -38.3520   12.5110  -18.7060 H   0  0  0  0  0  0  0  0  0  0  0  0
  -39.3810   11.2350  -16.9270 O   0  0  0  0  0  0  0  0  0  0  0  0
  -39.7440   11.1110  -16.0100 H   0  0  0  0  0  0  0  0  0  0  0  0
  -37.6440    9.0380  -17.5750 O   0  0  0  0  0  0  0  0  0  0  0  0
  -37.7600    8.5800  -18.4480 H   0  0  0  0  0  0  0  0  0  0  0  0
  -35.1650    9.7300  -18.8960 C   0  0  0  0  0  0  0  0  0  0  0  0
  -35.8450    9.3260  -19.8780 O   0  0  0  0  0  0  0  0  0  0  0  0
  -33.8270    9.3660  -18.7810 O   0  0  0  0  0  0  0  0  0  0  0  0
  -33.2260    9.8060  -18.0930 H   0  0  0  0  0  0  0  0  0  0  0  0
  -32.0080   14.2120  -14.2360 C   0  0  2  0  0  3  0  0  0  0  0  0
  -33.1810   15.1940  -14.4890 C   0  0  2  0  0  3  0  0  0  0  0  0
  -34.4850   14.4320  -14.8130 C   0  0  2  0  0  3  0  0  0  0  0  0
  -34.1670   13.1040  -15.5190 C   0  0  1  0  0  3  0  0  0  0  0  0
  -33.2680   12.2440  -14.5780 C   0  0  2  0  0  3  0  0  0  0  0  0
  -32.4720   12.9980  -13.6680 O   0  0  0  0  0  0  0  0  0  0  0  0
  -31.0620   14.8000  -13.3820 O   0  0  0  0  0  0  0  0  0  0  0  0
  -31.2560   15.7730  -13.3550 H   0  0  0  0  0  0  0  0  0  0  0  0
  -32.8480   16.0550  -15.5510 O   0  0  0  0  0  0  0  0  0  0  0  0
  -33.0670   15.5720  -16.3900 H   0  0  0  0  0  0  0  0  0  0  0  0
  -35.3240   15.2260  -15.6140 O   0  0  0  0  0  0  0  0  0  0  0  0
  -34.7430   15.6850  -16.2760 H   0  0  0  0  0  0  0  0  0  0  0  0
  -32.4040   11.2750  -15.3400 C   0  0  0  0  0  0  0  0  0  0  0  0
  -32.6440   11.0410  -16.5560 O   0  0  0  0  0  0  0  0  0  0  0  0
  -31.3560   10.6140  -14.7070 O   0  0  0  0  0  0  0  0  0  0  0  0
  -31.0460    9.7040  -15.0280 H   0  0  0  0  0  0  0  0  0  0  0  0
  2  3  1  0  0  0  0
  2  1  1  1  0  0  0
  3  8  1  6  0  0  0
  3  4  1  0  0  0  0
  4 10  1  6  0  0  0
  5  6  1  0  0  0  0
  5 12  1  1  0  0  0
  5  4  1  0  0  0  0
  6 14  1  6  0  0  0
  7  6  1  0  0  0  0
  7  2  1  0  0  0  0
  9  8  1  0  0  0  0
 10 11  1  0  0  0  0
 13 12  1  0  0  0  0
 14 16  1  0  0  0  0
 15 14  2  0  0  0  0
 16 17  1  0  0  0  0
 18 23  1  0  0  0  0
 18 24  1  1  0  0  0
 19 26  1  6  0  0  0
 19 18  1  0  0  0  0
 20 28  1  6  0  0  0
 20 19  1  0  0  0  0
 21  1  1  1  0  0  0
 21 20  1  0  0  0  0
 21 22  1  0  0  0  0
 22 30  1  6  0  0  0
 22 23  1  0  0  0  0
 24 25  1  0  0  0  0
 27 26  1  0  0  0  0
 29 28  1  0  0  0  0
 30 32  1  0  0  0  0
 31 30  2  0  0  0  0
 33 32  1  0  0  0  0
M  END
>  <MODEL>
4

>  <REMARK>
 VINA RESULT:    -6.830      1.376      5.861
 INTER + INTRA:         -11.312
 INTER:                 -10.406
 INTRA:                  -0.906
 UNBOUND:                -1.289
  Name = BEM
  12 active torsions:
  status: ('A' for Active; 'I' for Inactive)
    1  A    between atoms: C_1  and  O_20
    2  A    between atoms: C_2  and  O_3
    3  A    between atoms: C_4  and  O_5
    4  A    between atoms: C_6  and  O_7
    5  A    between atoms: C_8  and  C_10
    6  A    between atoms: C_10  and  O_11
    7  A    between atoms: C_13  and  O_14
    8  A    between atoms: C_15  and  O_16
    9  A    between atoms: C_17  and  O_18
   10  A    between atoms: C_19  and  O_20
   11  A    between atoms: C_21  and  C_23
   12  A    between atoms: C_23  and  O_25
                            x       y       z     vdW  Elec       q    Type
                         _______ _______ _______ _____ _____    ______ ____

>  <TORSDO>
F 12

$$$$
