BEM
 OpenBabel09132604103D

 33 34  0  0  1  0  0  0  0  0999 V2000
  -36.2600   10.6260  -15.0310 O   0  0  0  0  0  0  0  0  0  0  0  0
  -35.4460    9.6010  -14.4760 C   0  0  2  0  0  3  0  0  0  0  0  0
  -35.3820    9.7150  -12.9350 C   0  0  2  0  0  3  0  0  0  0  0  0
  -34.6270   10.9920  -12.5260 C   0  0  2  0  0  3  0  0  0  0  0  0
  -33.2740   11.0650  -13.2520 C   0  0  1  0  0  3  0  0  0  0  0  0
  -33.4920   10.8770  -14.7680 C   0  0  2  0  0  3  0  0  0  0  0  0
  -34.1450    9.6470  -15.0410 O   0  0  0  0  0  0  0  0  0  0  0  0
  -34.7310    8.5910  -12.4000 O   0  0  0  0  0  0  0  0  0  0  0  0
  -34.4680    8.8260  -11.4720 H   0  0  0  0  0  0  0  0  0  0  0  0
  -34.4190   11.0100  -11.1380 O   0  0  0  0  0  0  0  0  0  0  0  0
  -35.2790   10.7450  -10.7170 H   0  0  0  0  0  0  0  0  0  0  0  0
  -32.6740   12.3140  -13.0150 O   0  0  0  0  0  0  0  0  0  0  0  0
  -32.6540   12.4420  -12.0310 H   0  0  0  0  0  0  0  0  0  0  0  0
  -32.1700   10.8850  -15.4790 C   0  0  0  0  0  0  0  0  0  0  0  0
  -32.1270   10.9920  -16.7350 O   0  0  0  0  0  0  0  0  0  0  0  0
  -30.9920   10.7390  -14.7540 O   0  0  0  0  0  0  0  0  0  0  0  0
  -30.6770   11.4670  -14.1230 H   0  0  0  0  0  0  0  0  0  0  0  0
  -38.3240   10.2380  -18.5780 C   0  0  2  0  0  3  0  0  0  0  0  0
  -39.1490    9.8440  -17.3240 C   0  0  2  0  0  3  0  0  0  0  0  0
  -38.4190   10.2590  -16.0270 C   0  0  2  0  0  3  0  0  0  0  0  0
  -36.8970   10.2190  -16.2340 C   0  0  1  0  0  3  0  0  0  0  0  0
  -36.5260   11.2000  -17.3880 C   0  0  2  0  0  3  0  0  0  0  0  0
  -37.5640   11.4110  -18.3420 O   0  0  0  0  0  0  0  0  0  0  0  0
  -39.1780   10.4420  -19.6730 O   0  0  0  0  0  0  0  0  0  0  0  0
  -38.6100   10.7100  -20.4420 H   0  0  0  0  0  0  0  0  0  0  0  0
  -39.3740    8.4560  -17.3300 O   0  0  0  0  0  0  0  0  0  0  0  0
  -39.0440    8.1160  -18.2030 H   0  0  0  0  0  0  0  0  0  0  0  0
  -38.7950    9.4110  -14.9700 O   0  0  0  0  0  0  0  0  0  0  0  0
  -37.9650    8.9810  -14.6340 H   0  0  0  0  0  0  0  0  0  0  0  0
  -35.2520   10.8070  -18.0870 C   0  0  0  0  0  0  0  0  0  0  0  0
  -34.9980    9.5890  -18.2910 O   0  0  0  0  0  0  0  0  0  0  0  0
  -34.3390   11.7770  -18.4900 O   0  0  0  0  0  0  0  0  0  0  0  0
  -34.6030   12.7540  -18.5320 H   0  0  0  0  0  0  0  0  0  0  0  0
  2  1  1  6  0  0  0
  2  3  1  0  0  0  0
  3  4  1  0  0  0  0
  3  8  1  1  0  0  0
  4 10  1  1  0  0  0
  5 12  1  6  0  0  0
  5  4  1  0  0  0  0
  6 14  1  6  0  0  0
  6  5  1  0  0  0  0
  7  6  1  0  0  0  0
  7  2  1  0  0  0  0
  8  9  1  0  0  0  0
 10 11  1  0  0  0  0
 12 13  1  0  0  0  0
 14 16  1  0  0  0  0
 15 14  2  0  0  0  0
 16 17  1  0  0  0  0
 18 24  1  6  0  0  0
 18 23  1  0  0  0  0
 18 19  1  0  0  0  0
 19 26  1  1  0  0  0
 19 20  1  0  0  0  0
 20 28  1  1  0  0  0
 21 20  1  0  0  0  0
 21  1  1  1  0  0  0
 22 30  1  6  0  0  0
 22 21  1  0  0  0  0
 23 22  1  0  0  0  0
 25 24  1  0  0  0  0
 27 26  1  0  0  0  0
 28 29  1  0  0  0  0
 31 30  2  0  0  0  0
 32 30  1  0  0  0  0
 33 32  1  0  0  0  0
M  END
>  <MODEL>
7

>  <REMARK>
 VINA RESULT:    -6.585      2.270      3.444
 INTER + INTRA:         -10.954
 INTER:                  -9.512
 INTRA:                  -1.442
 UNBOUND:                -1.289
  Name = BEM
  12 active torsions:
  status: ('A' for Active; 'I' for Inactive)
    1  A    between atoms: C_1  and  O_20
    2  A    between atoms: C_2  and  O_3
    3  A    between atoms: C_4  and  O_5
    4  A    between atoms: C_6  and  O_7
    5  A    between atoms: C_8  and  C_10
    6  A    between atoms: C_10  and  O_11
    7  A    between atoms: C_13  and  O_14
    8  A    between atoms: C_15  and  O_16
    9  A    between atoms: C_17  and  O_18
   10  A    between atoms: C_19  and  O_20
   11  A    between atoms: C_21  and  C_23
   12  A    between atoms: C_23  and  O_25
                            x       y       z     vdW  Elec       q    Type
                         _______ _______ _______ _____ _____    ______ ____

>  <TORSDO>
F 12

$$$$
