BEM
 OpenBabel09132604103D

 33 34  0  0  1  0  0  0  0  0999 V2000
  -35.5750   11.0770  -13.0830 O   0  0  0  0  0  0  0  0  0  0  0  0
  -35.7640   12.3930  -12.5800 C   0  0  2  0  0  3  0  0  0  0  0  0
  -36.8610   13.1400  -13.3740 C   0  0  2  0  0  3  0  0  0  0  0  0
  -36.3900   13.4040  -14.8150 C   0  0  2  0  0  3  0  0  0  0  0  0
  -35.0070   14.0730  -14.8090 C   0  0  1  0  0  3  0  0  0  0  0  0
  -34.0400   13.2490  -13.9320 C   0  0  2  0  0  3  0  0  0  0  0  0
  -34.5400   13.1110  -12.6110 O   0  0  0  0  0  0  0  0  0  0  0  0
  -37.1580   14.3610  -12.7450 O   0  0  0  0  0  0  0  0  0  0  0  0
  -37.0880   15.0670  -13.4390 H   0  0  0  0  0  0  0  0  0  0  0  0
  -37.3100   14.2270  -15.4830 O   0  0  0  0  0  0  0  0  0  0  0  0
  -37.9160   14.6000  -14.7900 H   0  0  0  0  0  0  0  0  0  0  0  0
  -34.5070   14.1440  -16.1200 O   0  0  0  0  0  0  0  0  0  0  0  0
  -34.6450   15.0770  -16.4320 H   0  0  0  0  0  0  0  0  0  0  0  0
  -32.7030   13.9280  -13.8690 C   0  0  0  0  0  0  0  0  0  0  0  0
  -32.5390   14.9400  -13.1340 O   0  0  0  0  0  0  0  0  0  0  0  0
  -31.6510   13.4590  -14.6500 O   0  0  0  0  0  0  0  0  0  0  0  0
  -31.6160   13.6530  -15.6440 H   0  0  0  0  0  0  0  0  0  0  0  0
  -33.5120    8.1270  -11.0760 C   0  0  2  0  0  3  0  0  0  0  0  0
  -34.9890    8.2750  -10.6300 C   0  0  2  0  0  3  0  0  0  0  0  0
  -35.7700    9.2010  -11.5890 C   0  0  2  0  0  3  0  0  0  0  0  0
  -34.8320   10.2590  -12.1910 C   0  0  1  0  0  3  0  0  0  0  0  0
  -33.6920    9.5300  -12.9670 C   0  0  2  0  0  3  0  0  0  0  0  0
  -33.3910    8.2220  -12.4850 O   0  0  0  0  0  0  0  0  0  0  0  0
  -32.9970    6.8950  -10.6420 O   0  0  0  0  0  0  0  0  0  0  0  0
  -33.7540    6.3820  -10.2540 H   0  0  0  0  0  0  0  0  0  0  0  0
  -35.0330    8.7870   -9.3210 O   0  0  0  0  0  0  0  0  0  0  0  0
  -35.9600    8.6520   -8.9910 H   0  0  0  0  0  0  0  0  0  0  0  0
  -36.8330    9.8170  -10.9070 O   0  0  0  0  0  0  0  0  0  0  0  0
  -36.8710   10.7590  -11.2190 H   0  0  0  0  0  0  0  0  0  0  0  0
  -32.4340   10.3540  -13.0470 C   0  0  0  0  0  0  0  0  0  0  0  0
  -32.0090   10.9510  -12.0210 O   0  0  0  0  0  0  0  0  0  0  0  0
  -31.7500   10.4830  -14.2510 O   0  0  0  0  0  0  0  0  0  0  0  0
  -30.8000   10.8340  -14.2740 H   0  0  0  0  0  0  0  0  0  0  0  0
  2  1  1  6  0  0  0
  3  8  1  1  0  0  0
  3  2  1  0  0  0  0
  4 10  1  1  0  0  0
  4  5  1  0  0  0  0
  4  3  1  0  0  0  0
  5 12  1  6  0  0  0
  5  6  1  0  0  0  0
  6 14  1  1  0  0  0
  6  7  1  0  0  0  0
  7  2  1  0  0  0  0
  9  8  1  0  0  0  0
 10 11  1  0  0  0  0
 13 12  1  0  0  0  0
 14 15  2  0  0  0  0
 16 14  1  0  0  0  0
 17 16  1  0  0  0  0
 18 24  1  6  0  0  0
 18 19  1  0  0  0  0
 19 26  1  1  0  0  0
 20 28  1  1  0  0  0
 20 19  1  0  0  0  0
 21  1  1  6  0  0  0
 21 20  1  0  0  0  0
 22 30  1  1  0  0  0
 22 23  1  0  0  0  0
 22 21  1  0  0  0  0
 23 18  1  0  0  0  0
 24 25  1  0  0  0  0
 26 27  1  0  0  0  0
 29 28  1  0  0  0  0
 30 31  2  0  0  0  0
 32 30  1  0  0  0  0
 33 32  1  0  0  0  0
M  END
>  <MODEL>
12

>  <REMARK>
 VINA RESULT:    -6.336      3.174      5.273
 INTER + INTRA:         -10.588
 INTER:                  -9.437
 INTRA:                  -1.151
 UNBOUND:                -1.289
  Name = BEM
  12 active torsions:
  status: ('A' for Active; 'I' for Inactive)
    1  A    between atoms: C_1  and  O_20
    2  A    between atoms: C_2  and  O_3
    3  A    between atoms: C_4  and  O_5
    4  A    between atoms: C_6  and  O_7
    5  A    between atoms: C_8  and  C_10
    6  A    between atoms: C_10  and  O_11
    7  A    between atoms: C_13  and  O_14
    8  A    between atoms: C_15  and  O_16
    9  A    between atoms: C_17  and  O_18
   10  A    between atoms: C_19  and  O_20
   11  A    between atoms: C_21  and  C_23
   12  A    between atoms: C_23  and  O_25
                            x       y       z     vdW  Elec       q    Type
                         _______ _______ _______ _____ _____    ______ ____

>  <TORSDO>
F 12

$$$$
