BEM
 OpenBabel09132604103D

 33 34  0  0  1  0  0  0  0  0999 V2000
  -36.1030   11.2310  -15.6050 O   0  0  0  0  0  0  0  0  0  0  0  0
  -36.2930   11.9140  -16.8360 C   0  0  2  0  0  3  0  0  0  0  0  0
  -37.7080   12.5330  -16.9160 C   0  0  2  0  0  3  0  0  0  0  0  0
  -38.7720   11.4230  -16.9890 C   0  0  2  0  0  3  0  0  0  0  0  0
  -38.4230   10.4240  -18.1030 C   0  0  1  0  0  3  0  0  0  0  0  0
  -36.9680    9.9410  -17.9250 C   0  0  2  0  0  3  0  0  0  0  0  0
  -36.0630   11.0350  -17.9270 O   0  0  0  0  0  0  0  0  0  0  0  0
  -37.8070   13.3540  -18.0520 O   0  0  0  0  0  0  0  0  0  0  0  0
  -38.1880   14.2200  -17.7490 H   0  0  0  0  0  0  0  0  0  0  0  0
  -40.0380   11.9790  -17.2330 O   0  0  0  0  0  0  0  0  0  0  0  0
  -40.3770   12.3110  -16.3610 H   0  0  0  0  0  0  0  0  0  0  0  0
  -39.2930    9.3220  -18.0430 O   0  0  0  0  0  0  0  0  0  0  0  0
  -39.9680    9.5250  -17.3430 H   0  0  0  0  0  0  0  0  0  0  0  0
  -36.5970    9.0120  -19.0440 C   0  0  0  0  0  0  0  0  0  0  0  0
  -37.1670    7.8930  -19.1540 O   0  0  0  0  0  0  0  0  0  0  0  0
  -35.5960    9.3730  -19.9410 O   0  0  0  0  0  0  0  0  0  0  0  0
  -35.3270    8.7530  -20.6950 H   0  0  0  0  0  0  0  0  0  0  0  0
  -32.5330   12.8670  -14.3520 C   0  0  2  0  0  3  0  0  0  0  0  0
  -32.3770   11.5200  -15.1050 C   0  0  2  0  0  3  0  0  0  0  0  0
  -33.7060   11.0990  -15.7700 C   0  0  2  0  0  3  0  0  0  0  0  0
  -34.9010   11.6160  -14.9530 C   0  0  1  0  0  3  0  0  0  0  0  0
  -34.8150   13.1720  -14.8780 C   0  0  2  0  0  3  0  0  0  0  0  0
  -33.4940   13.6970  -14.9820 O   0  0  0  0  0  0  0  0  0  0  0  0
  -31.2990   13.5330  -14.2950 O   0  0  0  0  0  0  0  0  0  0  0  0
  -31.2700   14.1630  -15.0620 H   0  0  0  0  0  0  0  0  0  0  0  0
  -31.9510   10.5270  -14.2040 O   0  0  0  0  0  0  0  0  0  0  0  0
  -32.5850    9.7680  -14.2940 H   0  0  0  0  0  0  0  0  0  0  0  0
  -33.7630    9.6990  -15.8920 O   0  0  0  0  0  0  0  0  0  0  0  0
  -33.1600    9.3230  -15.1990 H   0  0  0  0  0  0  0  0  0  0  0  0
  -35.4960   13.7240  -13.6550 C   0  0  0  0  0  0  0  0  0  0  0  0
  -36.6870   14.1320  -13.7300 O   0  0  0  0  0  0  0  0  0  0  0  0
  -34.8150   13.8120  -12.4450 O   0  0  0  0  0  0  0  0  0  0  0  0
  -34.1310   13.1130  -12.1820 H   0  0  0  0  0  0  0  0  0  0  0  0
  2  1  1  1  0  0  0
  3  8  1  6  0  0  0
  3  2  1  0  0  0  0
  4 10  1  6  0  0  0
  4  3  1  0  0  0  0
  5 12  1  1  0  0  0
  5  6  1  0  0  0  0
  5  4  1  0  0  0  0
  6 14  1  6  0  0  0
  7  6  1  0  0  0  0
  7  2  1  0  0  0  0
  8  9  1  0  0  0  0
 10 11  1  0  0  0  0
 12 13  1  0  0  0  0
 15 14  2  0  0  0  0
 16 14  1  0  0  0  0
 17 16  1  0  0  0  0
 18 24  1  6  0  0  0
 19 18  1  0  0  0  0
 19 26  1  1  0  0  0
 20 28  1  1  0  0  0
 20 19  1  0  0  0  0
 20 21  1  0  0  0  0
 21  1  1  6  0  0  0
 21 22  1  0  0  0  0
 22 30  1  1  0  0  0
 23 22  1  0  0  0  0
 23 18  1  0  0  0  0
 25 24  1  0  0  0  0
 27 26  1  0  0  0  0
 28 29  1  0  0  0  0
 30 32  1  0  0  0  0
 31 30  2  0  0  0  0
 32 33  1  0  0  0  0
M  END
>  <MODEL>
9

>  <REMARK>
 VINA RESULT:    -6.498      1.453      6.272
 INTER + INTRA:         -10.825
 INTER:                  -9.945
 INTRA:                  -0.881
 UNBOUND:                -1.289
  Name = BEM
  12 active torsions:
  status: ('A' for Active; 'I' for Inactive)
    1  A    between atoms: C_1  and  O_20
    2  A    between atoms: C_2  and  O_3
    3  A    between atoms: C_4  and  O_5
    4  A    between atoms: C_6  and  O_7
    5  A    between atoms: C_8  and  C_10
    6  A    between atoms: C_10  and  O_11
    7  A    between atoms: C_13  and  O_14
    8  A    between atoms: C_15  and  O_16
    9  A    between atoms: C_17  and  O_18
   10  A    between atoms: C_19  and  O_20
   11  A    between atoms: C_21  and  C_23
   12  A    between atoms: C_23  and  O_25
                            x       y       z     vdW  Elec       q    Type
                         _______ _______ _______ _____ _____    ______ ____

>  <TORSDO>
F 12

$$$$
