BEM
 OpenBabel09132604103D

 33 34  0  0  1  0  0  0  0  0999 V2000
  -33.6620   10.2080  -11.7200 O   0  0  0  0  0  0  0  0  0  0  0  0
  -34.2810   10.3940  -12.9860 C   0  0  2  0  0  3  0  0  0  0  0  0
  -33.2400   10.7860  -14.0620 C   0  0  2  0  0  3  0  0  0  0  0  0
  -32.6700   12.1840  -13.7670 C   0  0  2  0  0  3  0  0  0  0  0  0
  -33.8110   13.1910  -13.5540 C   0  0  1  0  0  3  0  0  0  0  0  0
  -34.7950   12.6380  -12.5010 C   0  0  2  0  0  3  0  0  0  0  0  0
  -35.3050   11.3730  -12.8930 O   0  0  0  0  0  0  0  0  0  0  0  0
  -33.8410   10.7810  -15.3320 O   0  0  0  0  0  0  0  0  0  0  0  0
  -33.1140   10.9100  -15.9950 H   0  0  0  0  0  0  0  0  0  0  0  0
  -31.8570   12.6100  -14.8290 O   0  0  0  0  0  0  0  0  0  0  0  0
  -32.3980   12.5200  -15.6570 H   0  0  0  0  0  0  0  0  0  0  0  0
  -33.2860   14.4160  -13.1080 O   0  0  0  0  0  0  0  0  0  0  0  0
  -33.7720   14.6510  -12.2740 H   0  0  0  0  0  0  0  0  0  0  0  0
  -35.9460   13.5850  -12.3310 C   0  0  0  0  0  0  0  0  0  0  0  0
  -36.1460   14.5000  -13.1750 O   0  0  0  0  0  0  0  0  0  0  0  0
  -36.7750   13.4750  -11.2180 O   0  0  0  0  0  0  0  0  0  0  0  0
  -37.3340   14.2600  -10.9070 H   0  0  0  0  0  0  0  0  0  0  0  0
  -35.2530    7.8880   -8.7080 C   0  0  2  0  0  3  0  0  0  0  0  0
  -34.4080    7.0910   -9.7350 C   0  0  2  0  0  3  0  0  0  0  0  0
  -33.6320    8.0420  -10.6730 C   0  0  2  0  0  3  0  0  0  0  0  0
  -34.4130    9.3510  -10.8730 C   0  0  1  0  0  3  0  0  0  0  0  0
  -34.6150   10.0260   -9.4810 C   0  0  2  0  0  3  0  0  0  0  0  0
  -34.6320    9.1200   -8.3800 O   0  0  0  0  0  0  0  0  0  0  0  0
  -35.4370    7.1290   -7.5410 O   0  0  0  0  0  0  0  0  0  0  0  0
  -35.2260    7.7200   -6.7710 H   0  0  0  0  0  0  0  0  0  0  0  0
  -35.2530    6.2540  -10.4860 O   0  0  0  0  0  0  0  0  0  0  0  0
  -34.7230    5.9340  -11.2620 H   0  0  0  0  0  0  0  0  0  0  0  0
  -33.3990    7.4160  -11.9100 O   0  0  0  0  0  0  0  0  0  0  0  0
  -33.5510    8.0980  -12.6150 H   0  0  0  0  0  0  0  0  0  0  0  0
  -35.8330   10.9090   -9.4440 C   0  0  0  0  0  0  0  0  0  0  0  0
  -36.8590   10.5920  -10.1050 O   0  0  0  0  0  0  0  0  0  0  0  0
  -35.8290   12.0880   -8.7040 O   0  0  0  0  0  0  0  0  0  0  0  0
  -36.3810   12.8850   -8.9940 H   0  0  0  0  0  0  0  0  0  0  0  0
  2  7  1  0  0  0  0
  2  1  1  1  0  0  0
  3  8  1  6  0  0  0
  3  4  1  0  0  0  0
  3  2  1  0  0  0  0
  4 10  1  6  0  0  0
  4  5  1  0  0  0  0
  5 12  1  1  0  0  0
  5  6  1  0  0  0  0
  6 14  1  6  0  0  0
  7  6  1  0  0  0  0
  9  8  1  0  0  0  0
 11 10  1  0  0  0  0
 12 13  1  0  0  0  0
 14 16  1  0  0  0  0
 15 14  2  0  0  0  0
 16 17  1  0  0  0  0
 18 23  1  0  0  0  0
 18 24  1  1  0  0  0
 19 26  1  6  0  0  0
 19 18  1  0  0  0  0
 20 28  1  6  0  0  0
 20 19  1  0  0  0  0
 21  1  1  6  0  0  0
 21 20  1  0  0  0  0
 21 22  1  0  0  0  0
 22 30  1  6  0  0  0
 22 23  1  0  0  0  0
 24 25  1  0  0  0  0
 27 26  1  0  0  0  0
 29 28  1  0  0  0  0
 30 32  1  0  0  0  0
 31 30  2  0  0  0  0
 33 32  1  0  0  0  0
M  END
>  <MODEL>
20

>  <REMARK>
 VINA RESULT:    -5.928      4.221      7.004
 INTER + INTRA:          -9.990
 INTER:                  -8.501
 INTRA:                  -1.488
 UNBOUND:                -1.289
  Name = BEM
  12 active torsions:
  status: ('A' for Active; 'I' for Inactive)
    1  A    between atoms: C_1  and  O_20
    2  A    between atoms: C_2  and  O_3
    3  A    between atoms: C_4  and  O_5
    4  A    between atoms: C_6  and  O_7
    5  A    between atoms: C_8  and  C_10
    6  A    between atoms: C_10  and  O_11
    7  A    between atoms: C_13  and  O_14
    8  A    between atoms: C_15  and  O_16
    9  A    between atoms: C_17  and  O_18
   10  A    between atoms: C_19  and  O_20
   11  A    between atoms: C_21  and  C_23
   12  A    between atoms: C_23  and  O_25
                            x       y       z     vdW  Elec       q    Type
                         _______ _______ _______ _____ _____    ______ ____

>  <TORSDO>
F 12

$$$$
