BEM
 OpenBabel09132604103D

 33 34  0  0  1  0  0  0  0  0999 V2000
  -34.9710   10.5150  -15.8310 O   0  0  0  0  0  0  0  0  0  0  0  0
  -34.2250   11.7250  -15.7990 C   0  0  2  0  0  3  0  0  0  0  0  0
  -32.9690   11.5800  -14.9080 C   0  0  2  0  0  3  0  0  0  0  0  0
  -33.3790   11.4070  -13.4350 C   0  0  2  0  0  3  0  0  0  0  0  0
  -34.3590   12.5160  -13.0200 C   0  0  1  0  0  3  0  0  0  0  0  0
  -35.5230   12.5780  -14.0320 C   0  0  2  0  0  3  0  0  0  0  0  0
  -35.0440   12.7940  -15.3500 O   0  0  0  0  0  0  0  0  0  0  0  0
  -32.1570   12.7190  -15.0400 O   0  0  0  0  0  0  0  0  0  0  0  0
  -32.5270   13.2510  -15.7920 H   0  0  0  0  0  0  0  0  0  0  0  0
  -32.2450   11.4480  -12.6080 O   0  0  0  0  0  0  0  0  0  0  0  0
  -31.9820   10.5050  -12.4360 H   0  0  0  0  0  0  0  0  0  0  0  0
  -34.8660   12.2470  -11.7380 O   0  0  0  0  0  0  0  0  0  0  0  0
  -34.1630   12.5120  -11.0880 H   0  0  0  0  0  0  0  0  0  0  0  0
  -36.4540   13.6980  -13.6720 C   0  0  0  0  0  0  0  0  0  0  0  0
  -36.1760   14.4710  -12.7150 O   0  0  0  0  0  0  0  0  0  0  0  0
  -37.6440   13.8620  -14.3730 O   0  0  0  0  0  0  0  0  0  0  0  0
  -37.6390   14.0240  -15.3740 H   0  0  0  0  0  0  0  0  0  0  0  0
  -37.4270    9.4230  -18.9560 C   0  0  2  0  0  3  0  0  0  0  0  0
  -35.9650    8.9300  -19.1040 C   0  0  2  0  0  3  0  0  0  0  0  0
  -35.1720    9.1400  -17.7950 C   0  0  2  0  0  3  0  0  0  0  0  0
  -35.7060   10.3660  -17.0380 C   0  0  1  0  0  3  0  0  0  0  0  0
  -37.2140   10.1320  -16.7140 C   0  0  2  0  0  3  0  0  0  0  0  0
  -37.8870    9.2660  -17.6240 O   0  0  0  0  0  0  0  0  0  0  0  0
  -38.2670    8.7150  -19.8300 O   0  0  0  0  0  0  0  0  0  0  0  0
  -38.0960    7.7480  -19.6810 H   0  0  0  0  0  0  0  0  0  0  0  0
  -35.3440    9.6190  -20.1620 O   0  0  0  0  0  0  0  0  0  0  0  0
  -35.9220   10.3980  -20.3740 H   0  0  0  0  0  0  0  0  0  0  0  0
  -33.8030    9.2940  -18.0790 O   0  0  0  0  0  0  0  0  0  0  0  0
  -33.3110    9.1180  -17.2350 H   0  0  0  0  0  0  0  0  0  0  0  0
  -37.9750   11.4220  -16.5670 C   0  0  0  0  0  0  0  0  0  0  0  0
  -39.0640   11.4400  -15.9320 O   0  0  0  0  0  0  0  0  0  0  0  0
  -37.4990   12.5940  -17.1490 O   0  0  0  0  0  0  0  0  0  0  0  0
  -36.7330   13.1080  -16.7300 H   0  0  0  0  0  0  0  0  0  0  0  0
  2  1  1  1  0  0  0
  2  7  1  0  0  0  0
  2  3  1  0  0  0  0
  3  8  1  1  0  0  0
  3  4  1  0  0  0  0
  4  5  1  0  0  0  0
  4 10  1  1  0  0  0
  5 12  1  1  0  0  0
  6 14  1  1  0  0  0
  6  5  1  0  0  0  0
  7  6  1  0  0  0  0
  9  8  1  0  0  0  0
 10 11  1  0  0  0  0
 12 13  1  0  0  0  0
 14 15  2  0  0  0  0
 16 14  1  0  0  0  0
 17 16  1  0  0  0  0
 18 24  1  6  0  0  0
 18 23  1  0  0  0  0
 19 26  1  6  0  0  0
 19 18  1  0  0  0  0
 19 20  1  0  0  0  0
 20 28  1  6  0  0  0
 20 21  1  0  0  0  0
 21 22  1  0  0  0  0
 21  1  1  1  0  0  0
 22 30  1  6  0  0  0
 23 22  1  0  0  0  0
 24 25  1  0  0  0  0
 27 26  1  0  0  0  0
 28 29  1  0  0  0  0
 30 31  2  0  0  0  0
 32 33  1  0  0  0  0
 32 30  1  0  0  0  0
M  END
>  <MODEL>
8

>  <REMARK>
 VINA RESULT:    -6.526      1.769      4.015
 INTER + INTRA:         -10.866
 INTER:                  -9.167
 INTRA:                  -1.700
 UNBOUND:                -1.289
  Name = BEM
  12 active torsions:
  status: ('A' for Active; 'I' for Inactive)
    1  A    between atoms: C_1  and  O_20
    2  A    between atoms: C_2  and  O_3
    3  A    between atoms: C_4  and  O_5
    4  A    between atoms: C_6  and  O_7
    5  A    between atoms: C_8  and  C_10
    6  A    between atoms: C_10  and  O_11
    7  A    between atoms: C_13  and  O_14
    8  A    between atoms: C_15  and  O_16
    9  A    between atoms: C_17  and  O_18
   10  A    between atoms: C_19  and  O_20
   11  A    between atoms: C_21  and  C_23
   12  A    between atoms: C_23  and  O_25
                            x       y       z     vdW  Elec       q    Type
                         _______ _______ _______ _____ _____    ______ ____

>  <TORSDO>
F 12

$$$$
