BEM
 OpenBabel09132604103D

 33 34  0  0  1  0  0  0  0  0999 V2000
  -35.2780   10.4800  -15.6820 O   0  0  0  0  0  0  0  0  0  0  0  0
  -34.2960   11.1480  -16.4630 C   0  0  2  0  0  3  0  0  0  0  0  0
  -32.8750   10.6480  -16.1150 C   0  0  2  0  0  3  0  0  0  0  0  0
  -32.4980   11.0670  -14.6840 C   0  0  2  0  0  3  0  0  0  0  0  0
  -32.7340   12.5730  -14.4900 C   0  0  1  0  0  3  0  0  0  0  0  0
  -34.1690   12.9300  -14.9320 C   0  0  2  0  0  3  0  0  0  0  0  0
  -34.3970   12.5530  -16.2810 O   0  0  0  0  0  0  0  0  0  0  0  0
  -31.9450   11.1830  -17.0230 O   0  0  0  0  0  0  0  0  0  0  0  0
  -31.1660   11.4890  -16.4890 H   0  0  0  0  0  0  0  0  0  0  0  0
  -31.1500   10.7650  -14.4280 O   0  0  0  0  0  0  0  0  0  0  0  0
  -30.8620   11.3530  -13.6820 H   0  0  0  0  0  0  0  0  0  0  0  0
  -32.5620   12.9110  -13.1370 O   0  0  0  0  0  0  0  0  0  0  0  0
  -32.9970   12.1950  -12.6030 H   0  0  0  0  0  0  0  0  0  0  0  0
  -34.3900   14.4090  -14.8050 C   0  0  0  0  0  0  0  0  0  0  0  0
  -35.1320   14.8630  -13.8920 O   0  0  0  0  0  0  0  0  0  0  0  0
  -33.8030   15.2780  -15.7190 O   0  0  0  0  0  0  0  0  0  0  0  0
  -33.1390   15.9800  -15.4150 H   0  0  0  0  0  0  0  0  0  0  0  0
  -38.6410   10.7510  -18.0510 C   0  0  2  0  0  3  0  0  0  0  0  0
  -38.8570   11.2390  -16.5950 C   0  0  2  0  0  3  0  0  0  0  0  0
  -37.5120   11.3600  -15.8440 C   0  0  2  0  0  3  0  0  0  0  0  0
  -36.5080   10.3260  -16.3770 C   0  0  1  0  0  3  0  0  0  0  0  0
  -36.2900   10.5840  -17.9000 C   0  0  2  0  0  3  0  0  0  0  0  0
  -37.3950   11.1970  -18.5600 O   0  0  0  0  0  0  0  0  0  0  0  0
  -39.6790   11.2140  -18.8740 O   0  0  0  0  0  0  0  0  0  0  0  0
  -40.1080   11.9770  -18.4050 H   0  0  0  0  0  0  0  0  0  0  0  0
  -39.7070   10.3430  -15.9230 O   0  0  0  0  0  0  0  0  0  0  0  0
  -40.6240   10.5050  -16.2690 H   0  0  0  0  0  0  0  0  0  0  0  0
  -37.7120   11.1840  -14.4630 O   0  0  0  0  0  0  0  0  0  0  0  0
  -36.8250   10.9870  -14.0640 H   0  0  0  0  0  0  0  0  0  0  0  0
  -35.8710    9.3410  -18.6380 C   0  0  0  0  0  0  0  0  0  0  0  0
  -36.0110    8.2120  -18.0950 O   0  0  0  0  0  0  0  0  0  0  0  0
  -35.3080    9.4290  -19.9080 O   0  0  0  0  0  0  0  0  0  0  0  0
  -34.3570    9.7530  -20.0330 H   0  0  0  0  0  0  0  0  0  0  0  0
  2  7  1  0  0  0  0
  2  3  1  0  0  0  0
  2  1  1  1  0  0  0
  3  8  1  6  0  0  0
  3  4  1  0  0  0  0
  4  5  1  0  0  0  0
  4 10  1  6  0  0  0
  5 12  1  1  0  0  0
  6 14  1  6  0  0  0
  6  5  1  0  0  0  0
  7  6  1  0  0  0  0
  8  9  1  0  0  0  0
 10 11  1  0  0  0  0
 12 13  1  0  0  0  0
 14 15  2  0  0  0  0
 16 17  1  0  0  0  0
 16 14  1  0  0  0  0
 18 24  1  6  0  0  0
 18 19  1  0  0  0  0
 19 26  1  1  0  0  0
 19 20  1  0  0  0  0
 20 28  1  1  0  0  0
 21 20  1  0  0  0  0
 21  1  1  1  0  0  0
 22 30  1  6  0  0  0
 22 21  1  0  0  0  0
 23 18  1  0  0  0  0
 23 22  1  0  0  0  0
 24 25  1  0  0  0  0
 27 26  1  0  0  0  0
 28 29  1  0  0  0  0
 30 31  2  0  0  0  0
 32 30  1  0  0  0  0
 33 32  1  0  0  0  0
M  END
>  <MODEL>
5

>  <REMARK>
 VINA RESULT:    -6.748      1.580      3.501
 INTER + INTRA:         -11.193
 INTER:                 -10.533
 INTRA:                  -0.660
 UNBOUND:                -1.289
  Name = BEM
  12 active torsions:
  status: ('A' for Active; 'I' for Inactive)
    1  A    between atoms: C_1  and  O_20
    2  A    between atoms: C_2  and  O_3
    3  A    between atoms: C_4  and  O_5
    4  A    between atoms: C_6  and  O_7
    5  A    between atoms: C_8  and  C_10
    6  A    between atoms: C_10  and  O_11
    7  A    between atoms: C_13  and  O_14
    8  A    between atoms: C_15  and  O_16
    9  A    between atoms: C_17  and  O_18
   10  A    between atoms: C_19  and  O_20
   11  A    between atoms: C_21  and  C_23
   12  A    between atoms: C_23  and  O_25
                            x       y       z     vdW  Elec       q    Type
                         _______ _______ _______ _____ _____    ______ ____

>  <TORSDO>
F 12

$$$$
