BEM
 OpenBabel09132604103D

 33 34  0  0  1  0  0  0  0  0999 V2000
  -34.6540   12.6340  -17.0010 O   0  0  0  0  0  0  0  0  0  0  0  0
  -35.0910   12.7710  -15.6550 C   0  0  2  0  0  3  0  0  0  0  0  0
  -34.9670   14.2360  -15.1760 C   0  0  2  0  0  3  0  0  0  0  0  0
  -33.4870   14.6430  -15.0840 C   0  0  2  0  0  3  0  0  0  0  0  0
  -32.7010   13.6100  -14.2610 C   0  0  1  0  0  3  0  0  0  0  0  0
  -32.9690   12.1970  -14.8190 C   0  0  2  0  0  3  0  0  0  0  0  0
  -34.3570   11.8990  -14.8100 O   0  0  0  0  0  0  0  0  0  0  0  0
  -35.5750   14.3800  -13.9170 O   0  0  0  0  0  0  0  0  0  0  0  0
  -36.2240   15.1270  -13.9950 H   0  0  0  0  0  0  0  0  0  0  0  0
  -33.3670   15.9090  -14.4890 O   0  0  0  0  0  0  0  0  0  0  0  0
  -34.2640   16.1430  -14.1310 H   0  0  0  0  0  0  0  0  0  0  0  0
  -31.3260   13.8900  -14.3340 O   0  0  0  0  0  0  0  0  0  0  0  0
  -30.8940   13.1060  -14.7640 H   0  0  0  0  0  0  0  0  0  0  0  0
  -32.2560   11.1740  -13.9840 C   0  0  0  0  0  0  0  0  0  0  0  0
  -32.8080   10.6970  -12.9550 O   0  0  0  0  0  0  0  0  0  0  0  0
  -30.9670   10.7760  -14.3270 O   0  0  0  0  0  0  0  0  0  0  0  0
  -30.4190   10.1960  -13.7030 H   0  0  0  0  0  0  0  0  0  0  0  0
  -37.4850   10.0580  -18.5320 C   0  0  2  0  0  3  0  0  0  0  0  0
  -36.0430    9.4870  -18.5450 C   0  0  2  0  0  3  0  0  0  0  0  0
  -35.0840   10.3810  -17.7270 C   0  0  2  0  0  3  0  0  0  0  0  0
  -35.5430   11.8470  -17.7800 C   0  0  1  0  0  3  0  0  0  0  0  0
  -36.9850   11.9380  -17.1920 C   0  0  2  0  0  3  0  0  0  0  0  0
  -37.7530   10.7430  -17.3190 O   0  0  0  0  0  0  0  0  0  0  0  0
  -38.4160    9.0220  -18.7030 O   0  0  0  0  0  0  0  0  0  0  0  0
  -39.0240    9.0410  -17.9170 H   0  0  0  0  0  0  0  0  0  0  0  0
  -35.5930    9.3840  -19.8730 O   0  0  0  0  0  0  0  0  0  0  0  0
  -35.3180    8.4400  -20.0100 H   0  0  0  0  0  0  0  0  0  0  0  0
  -33.7730   10.2580  -18.2180 O   0  0  0  0  0  0  0  0  0  0  0  0
  -33.1600   10.3970  -17.4490 H   0  0  0  0  0  0  0  0  0  0  0  0
  -37.7550   13.1090  -17.7410 C   0  0  0  0  0  0  0  0  0  0  0  0
  -38.9980   13.0090  -17.9310 O   0  0  0  0  0  0  0  0  0  0  0  0
  -37.1020   14.2940  -18.0640 O   0  0  0  0  0  0  0  0  0  0  0  0
  -37.3800   15.1720  -17.6420 H   0  0  0  0  0  0  0  0  0  0  0  0
  2  1  1  6  0  0  0
  2  3  1  0  0  0  0
  2  7  1  0  0  0  0
  3  4  1  0  0  0  0
  3  8  1  1  0  0  0
  4 10  1  1  0  0  0
  4  5  1  0  0  0  0
  5 12  1  6  0  0  0
  6  7  1  0  0  0  0
  6  5  1  0  0  0  0
  6 14  1  1  0  0  0
  9  8  1  0  0  0  0
 10 11  1  0  0  0  0
 13 12  1  0  0  0  0
 14 15  2  0  0  0  0
 16 14  1  0  0  0  0
 16 17  1  0  0  0  0
 18 24  1  1  0  0  0
 18 23  1  0  0  0  0
 19 26  1  6  0  0  0
 19 18  1  0  0  0  0
 19 20  1  0  0  0  0
 20 28  1  6  0  0  0
 21 20  1  0  0  0  0
 21 22  1  0  0  0  0
 21  1  1  1  0  0  0
 22 30  1  6  0  0  0
 23 22  1  0  0  0  0
 24 25  1  0  0  0  0
 27 26  1  0  0  0  0
 28 29  1  0  0  0  0
 31 30  2  0  0  0  0
 32 30  1  0  0  0  0
 32 33  1  0  0  0  0
M  END
>  <MODEL>
2

>  <REMARK>
 VINA RESULT:    -7.153      0.999      2.785
 INTER + INTRA:         -11.786
 INTER:                 -10.676
 INTRA:                  -1.110
 UNBOUND:                -1.289
  Name = BEM
  12 active torsions:
  status: ('A' for Active; 'I' for Inactive)
    1  A    between atoms: C_1  and  O_20
    2  A    between atoms: C_2  and  O_3
    3  A    between atoms: C_4  and  O_5
    4  A    between atoms: C_6  and  O_7
    5  A    between atoms: C_8  and  C_10
    6  A    between atoms: C_10  and  O_11
    7  A    between atoms: C_13  and  O_14
    8  A    between atoms: C_15  and  O_16
    9  A    between atoms: C_17  and  O_18
   10  A    between atoms: C_19  and  O_20
   11  A    between atoms: C_21  and  C_23
   12  A    between atoms: C_23  and  O_25
                            x       y       z     vdW  Elec       q    Type
                         _______ _______ _______ _____ _____    ______ ____

>  <TORSDO>
F 12

$$$$
