BEM
 OpenBabel09132604103D

 33 34  0  0  1  0  0  0  0  0999 V2000
  -36.3880   11.6220  -15.8980 O   0  0  0  0  0  0  0  0  0  0  0  0
  -37.0310   12.0810  -17.0800 C   0  0  2  0  0  3  0  0  0  0  0  0
  -38.5620   12.1720  -16.8810 C   0  0  2  0  0  3  0  0  0  0  0  0
  -39.1610   10.7660  -16.7060 C   0  0  2  0  0  3  0  0  0  0  0  0
  -38.6970    9.8430  -17.8440 C   0  0  1  0  0  3  0  0  0  0  0  0
  -37.1590    9.9020  -17.9580 C   0  0  2  0  0  3  0  0  0  0  0  0
  -36.7130   11.2320  -18.1730 O   0  0  0  0  0  0  0  0  0  0  0  0
  -39.1510   12.8000  -17.9910 O   0  0  0  0  0  0  0  0  0  0  0  0
  -40.0960   12.4990  -18.0240 H   0  0  0  0  0  0  0  0  0  0  0  0
  -40.5640   10.8330  -16.6970 O   0  0  0  0  0  0  0  0  0  0  0  0
  -40.8940    9.9040  -16.5770 H   0  0  0  0  0  0  0  0  0  0  0  0
  -39.0970    8.5230  -17.5790 O   0  0  0  0  0  0  0  0  0  0  0  0
  -38.9410    8.0020  -18.4100 H   0  0  0  0  0  0  0  0  0  0  0  0
  -36.6990    9.0520  -19.1070 C   0  0  0  0  0  0  0  0  0  0  0  0
  -35.4980    9.1000  -19.4890 O   0  0  0  0  0  0  0  0  0  0  0  0
  -37.6080    8.2370  -19.7720 O   0  0  0  0  0  0  0  0  0  0  0  0
  -37.3980    7.2610  -19.9490 H   0  0  0  0  0  0  0  0  0  0  0  0
  -32.9310   13.2720  -14.3780 C   0  0  2  0  0  3  0  0  0  0  0  0
  -34.2220   14.0240  -13.9620 C   0  0  2  0  0  3  0  0  0  0  0  0
  -35.4820   13.2140  -14.3380 C   0  0  2  0  0  3  0  0  0  0  0  0
  -35.2190   12.3690  -15.5950 C   0  0  1  0  0  3  0  0  0  0  0  0
  -34.0330   11.3990  -15.3010 C   0  0  2  0  0  3  0  0  0  0  0  0
  -33.1150   11.8680  -14.3160 O   0  0  0  0  0  0  0  0  0  0  0  0
  -31.8650   13.6440  -13.5430 O   0  0  0  0  0  0  0  0  0  0  0  0
  -32.1630   14.4360  -13.0220 H   0  0  0  0  0  0  0  0  0  0  0  0
  -34.2510   15.2830  -14.5870 O   0  0  0  0  0  0  0  0  0  0  0  0
  -33.3220   15.4830  -14.8740 H   0  0  0  0  0  0  0  0  0  0  0  0
  -36.5690   14.0820  -14.5480 O   0  0  0  0  0  0  0  0  0  0  0  0
  -37.3800   13.6170  -14.2150 H   0  0  0  0  0  0  0  0  0  0  0  0
  -33.2930   11.0030  -16.5510 C   0  0  0  0  0  0  0  0  0  0  0  0
  -32.1520   10.4750  -16.4650 O   0  0  0  0  0  0  0  0  0  0  0  0
  -33.8490   11.2390  -17.8050 O   0  0  0  0  0  0  0  0  0  0  0  0
  -34.8500   11.3380  -17.9190 H   0  0  0  0  0  0  0  0  0  0  0  0
  2  3  1  0  0  0  0
  2  1  1  1  0  0  0
  3  8  1  6  0  0  0
  3  4  1  0  0  0  0
  4 10  1  6  0  0  0
  5 12  1  1  0  0  0
  5  4  1  0  0  0  0
  6 14  1  6  0  0  0
  6  5  1  0  0  0  0
  7  6  1  0  0  0  0
  7  2  1  0  0  0  0
  9  8  1  0  0  0  0
 10 11  1  0  0  0  0
 13 12  1  0  0  0  0
 15 14  2  0  0  0  0
 16 14  1  0  0  0  0
 17 16  1  0  0  0  0
 18 23  1  0  0  0  0
 18 19  1  0  0  0  0
 18 24  1  1  0  0  0
 19 26  1  6  0  0  0
 20 28  1  6  0  0  0
 20 19  1  0  0  0  0
 21  1  1  1  0  0  0
 21 22  1  0  0  0  0
 21 20  1  0  0  0  0
 22 30  1  6  0  0  0
 22 23  1  0  0  0  0
 24 25  1  0  0  0  0
 27 26  1  0  0  0  0
 28 29  1  0  0  0  0
 30 31  2  0  0  0  0
 32 30  1  0  0  0  0
 33 32  1  0  0  0  0
M  END
>  <MODEL>
10

>  <REMARK>
 VINA RESULT:    -6.446      1.577      6.106
 INTER + INTRA:         -10.749
 INTER:                  -9.269
 INTRA:                  -1.480
 UNBOUND:                -1.289
  Name = BEM
  12 active torsions:
  status: ('A' for Active; 'I' for Inactive)
    1  A    between atoms: C_1  and  O_20
    2  A    between atoms: C_2  and  O_3
    3  A    between atoms: C_4  and  O_5
    4  A    between atoms: C_6  and  O_7
    5  A    between atoms: C_8  and  C_10
    6  A    between atoms: C_10  and  O_11
    7  A    between atoms: C_13  and  O_14
    8  A    between atoms: C_15  and  O_16
    9  A    between atoms: C_17  and  O_18
   10  A    between atoms: C_19  and  O_20
   11  A    between atoms: C_21  and  C_23
   12  A    between atoms: C_23  and  O_25
                            x       y       z     vdW  Elec       q    Type
                         _______ _______ _______ _____ _____    ______ ____

>  <TORSDO>
F 12

$$$$
