BEM
 OpenBabel09132604103D

 33 34  0  0  1  0  0  0  0  0999 V2000
  -34.8830   10.1160  -11.9420 O   0  0  0  0  0  0  0  0  0  0  0  0
  -34.9320   10.3250  -13.3470 C   0  0  2  0  0  3  0  0  0  0  0  0
  -33.5380   10.1320  -13.9870 C   0  0  2  0  0  3  0  0  0  0  0  0
  -32.5800   11.2430  -13.5240 C   0  0  2  0  0  3  0  0  0  0  0  0
  -33.2210   12.6230  -13.7400 C   0  0  1  0  0  3  0  0  0  0  0  0
  -34.6240   12.6440  -13.0990 C   0  0  2  0  0  3  0  0  0  0  0  0
  -35.4460   11.6170  -13.6330 O   0  0  0  0  0  0  0  0  0  0  0  0
  -33.6480   10.1590  -15.3880 O   0  0  0  0  0  0  0  0  0  0  0  0
  -33.2870   11.0330  -15.6880 H   0  0  0  0  0  0  0  0  0  0  0  0
  -31.3700   11.1680  -14.2340 O   0  0  0  0  0  0  0  0  0  0  0  0
  -30.6850   10.8370  -13.5960 H   0  0  0  0  0  0  0  0  0  0  0  0
  -32.4210   13.6160  -13.1500 O   0  0  0  0  0  0  0  0  0  0  0  0
  -31.9030   14.0420  -13.8820 H   0  0  0  0  0  0  0  0  0  0  0  0
  -35.2840   13.9670  -13.3580 C   0  0  0  0  0  0  0  0  0  0  0  0
  -34.8990   14.6920  -14.3150 O   0  0  0  0  0  0  0  0  0  0  0  0
  -36.3010   14.4090  -12.5170 O   0  0  0  0  0  0  0  0  0  0  0  0
  -37.2710   14.3670  -12.8090 H   0  0  0  0  0  0  0  0  0  0  0  0
  -35.3870    6.4240  -10.1810 C   0  0  2  0  0  3  0  0  0  0  0  0
  -33.9050    6.8670  -10.2990 C   0  0  2  0  0  3  0  0  0  0  0  0
  -33.8000    8.3500  -10.7180 C   0  0  2  0  0  3  0  0  0  0  0  0
  -34.9990    8.7440  -11.5950 C   0  0  1  0  0  3  0  0  0  0  0  0
  -36.3090    8.5140  -10.7790 C   0  0  2  0  0  3  0  0  0  0  0  0
  -36.2130    7.5030   -9.7780 O   0  0  0  0  0  0  0  0  0  0  0  0
  -35.5040    5.3720   -9.2590 O   0  0  0  0  0  0  0  0  0  0  0  0
  -36.2550    5.5980   -8.6500 H   0  0  0  0  0  0  0  0  0  0  0  0
  -33.2470    6.0520  -11.2380 O   0  0  0  0  0  0  0  0  0  0  0  0
  -33.7800    6.0910  -12.0740 H   0  0  0  0  0  0  0  0  0  0  0  0
  -32.5940    8.5740  -11.4040 O   0  0  0  0  0  0  0  0  0  0  0  0
  -32.8230    9.0440  -12.2490 H   0  0  0  0  0  0  0  0  0  0  0  0
  -37.4970    8.2530  -11.6650 C   0  0  0  0  0  0  0  0  0  0  0  0
  -37.4140    8.4640  -12.9060 O   0  0  0  0  0  0  0  0  0  0  0  0
  -38.6980    7.8030  -11.1230 O   0  0  0  0  0  0  0  0  0  0  0  0
  -39.2970    8.4280  -10.5980 H   0  0  0  0  0  0  0  0  0  0  0  0
  2  1  1  1  0  0  0
  3  8  1  6  0  0  0
  3  4  1  0  0  0  0
  3  2  1  0  0  0  0
  4 10  1  6  0  0  0
  5  4  1  0  0  0  0
  5 12  1  1  0  0  0
  5  6  1  0  0  0  0
  6 14  1  6  0  0  0
  7  2  1  0  0  0  0
  7  6  1  0  0  0  0
  9  8  1  0  0  0  0
 10 11  1  0  0  0  0
 13 12  1  0  0  0  0
 14 16  1  0  0  0  0
 15 14  2  0  0  0  0
 17 16  1  0  0  0  0
 18 23  1  0  0  0  0
 18 24  1  1  0  0  0
 19 26  1  6  0  0  0
 19 18  1  0  0  0  0
 20 28  1  6  0  0  0
 20 19  1  0  0  0  0
 21  1  1  1  0  0  0
 21 22  1  0  0  0  0
 21 20  1  0  0  0  0
 22 30  1  6  0  0  0
 22 23  1  0  0  0  0
 24 25  1  0  0  0  0
 27 26  1  0  0  0  0
 29 28  1  0  0  0  0
 30 32  1  0  0  0  0
 31 30  2  0  0  0  0
 32 33  1  0  0  0  0
M  END
>  <MODEL>
15

>  <REMARK>
 VINA RESULT:    -6.229      4.233      6.583
 INTER + INTRA:         -10.431
 INTER:                  -9.744
 INTRA:                  -0.687
 UNBOUND:                -1.289
  Name = BEM
  12 active torsions:
  status: ('A' for Active; 'I' for Inactive)
    1  A    between atoms: C_1  and  O_20
    2  A    between atoms: C_2  and  O_3
    3  A    between atoms: C_4  and  O_5
    4  A    between atoms: C_6  and  O_7
    5  A    between atoms: C_8  and  C_10
    6  A    between atoms: C_10  and  O_11
    7  A    between atoms: C_13  and  O_14
    8  A    between atoms: C_15  and  O_16
    9  A    between atoms: C_17  and  O_18
   10  A    between atoms: C_19  and  O_20
   11  A    between atoms: C_21  and  C_23
   12  A    between atoms: C_23  and  O_25
                            x       y       z     vdW  Elec       q    Type
                         _______ _______ _______ _____ _____    ______ ____

>  <TORSDO>
F 12

$$$$
