BEM
 OpenBabel09132604103D

 33 34  0  0  1  0  0  0  0  0999 V2000
  -35.4860    9.5150  -12.9580 O   0  0  0  0  0  0  0  0  0  0  0  0
  -34.7460   10.6270  -12.4710 C   0  0  2  0  0  3  0  0  0  0  0  0
  -35.5390   11.9430  -12.6480 C   0  0  2  0  0  3  0  0  0  0  0  0
  -35.6890   12.2770  -14.1420 C   0  0  2  0  0  3  0  0  0  0  0  0
  -34.3200   12.2320  -14.8380 C   0  0  1  0  0  3  0  0  0  0  0  0
  -33.6270   10.8900  -14.5230 C   0  0  2  0  0  3  0  0  0  0  0  0
  -33.4870   10.7030  -13.1230 O   0  0  0  0  0  0  0  0  0  0  0  0
  -34.8730   12.9940  -11.9950 O   0  0  0  0  0  0  0  0  0  0  0  0
  -34.5200   12.6250  -11.1430 H   0  0  0  0  0  0  0  0  0  0  0  0
  -36.2560   13.5520  -14.3000 O   0  0  0  0  0  0  0  0  0  0  0  0
  -35.6590   14.1910  -13.8280 H   0  0  0  0  0  0  0  0  0  0  0  0
  -34.4880   12.3580  -16.2280 O   0  0  0  0  0  0  0  0  0  0  0  0
  -34.3440   13.3150  -16.4500 H   0  0  0  0  0  0  0  0  0  0  0  0
  -32.2620   10.8600  -15.1470 C   0  0  0  0  0  0  0  0  0  0  0  0
  -32.1390   10.8000  -16.4010 O   0  0  0  0  0  0  0  0  0  0  0  0
  -31.1300   10.8640  -14.3380 O   0  0  0  0  0  0  0  0  0  0  0  0
  -30.6010   10.0140  -14.1810 H   0  0  0  0  0  0  0  0  0  0  0  0
  -35.7460    7.1500   -9.5920 C   0  0  2  0  0  3  0  0  0  0  0  0
  -34.3610    7.1010  -10.2890 C   0  0  2  0  0  3  0  0  0  0  0  0
  -34.2460    8.1950  -11.3730 C   0  0  2  0  0  3  0  0  0  0  0  0
  -35.6250    8.4910  -11.9840 C   0  0  1  0  0  3  0  0  0  0  0  0
  -36.5800    8.9680  -10.8460 C   0  0  2  0  0  3  0  0  0  0  0  0
  -36.2510    8.4740   -9.5500 O   0  0  0  0  0  0  0  0  0  0  0  0
  -35.6470    6.6430   -8.2870 O   0  0  0  0  0  0  0  0  0  0  0  0
  -34.7600    6.9150   -7.9320 H   0  0  0  0  0  0  0  0  0  0  0  0
  -34.1710    5.8310  -10.8620 O   0  0  0  0  0  0  0  0  0  0  0  0
  -35.0150    5.3260  -10.7250 H   0  0  0  0  0  0  0  0  0  0  0  0
  -33.3420    7.7930  -12.3720 O   0  0  0  0  0  0  0  0  0  0  0  0
  -33.7790    7.9670  -13.2460 H   0  0  0  0  0  0  0  0  0  0  0  0
  -38.0260    8.6850  -11.1560 C   0  0  0  0  0  0  0  0  0  0  0  0
  -38.8900    8.7620  -10.2410 O   0  0  0  0  0  0  0  0  0  0  0  0
  -38.4140    8.3150  -12.4400 O   0  0  0  0  0  0  0  0  0  0  0  0
  -37.7570    7.8810  -13.0760 H   0  0  0  0  0  0  0  0  0  0  0  0
  2  1  1  6  0  0  0
  3  2  1  0  0  0  0
  3  8  1  1  0  0  0
  4 10  1  1  0  0  0
  4  3  1  0  0  0  0
  5 12  1  6  0  0  0
  5  6  1  0  0  0  0
  5  4  1  0  0  0  0
  6 14  1  6  0  0  0
  6  7  1  0  0  0  0
  7  2  1  0  0  0  0
  8  9  1  0  0  0  0
 10 11  1  0  0  0  0
 13 12  1  0  0  0  0
 14 16  1  0  0  0  0
 15 14  2  0  0  0  0
 16 17  1  0  0  0  0
 18 23  1  0  0  0  0
 18 24  1  1  0  0  0
 19 26  1  6  0  0  0
 19 18  1  0  0  0  0
 20 28  1  6  0  0  0
 20 19  1  0  0  0  0
 21  1  1  6  0  0  0
 21 20  1  0  0  0  0
 21 22  1  0  0  0  0
 22 30  1  6  0  0  0
 22 23  1  0  0  0  0
 24 25  1  0  0  0  0
 26 27  1  0  0  0  0
 29 28  1  0  0  0  0
 30 31  2  0  0  0  0
 32 30  1  0  0  0  0
 33 32  1  0  0  0  0
M  END
>  <MODEL>
19

>  <REMARK>
 VINA RESULT:    -6.005      4.372      6.373
 INTER + INTRA:         -10.102
 INTER:                  -8.994
 INTRA:                  -1.108
 UNBOUND:                -1.289
  Name = BEM
  12 active torsions:
  status: ('A' for Active; 'I' for Inactive)
    1  A    between atoms: C_1  and  O_20
    2  A    between atoms: C_2  and  O_3
    3  A    between atoms: C_4  and  O_5
    4  A    between atoms: C_6  and  O_7
    5  A    between atoms: C_8  and  C_10
    6  A    between atoms: C_10  and  O_11
    7  A    between atoms: C_13  and  O_14
    8  A    between atoms: C_15  and  O_16
    9  A    between atoms: C_17  and  O_18
   10  A    between atoms: C_19  and  O_20
   11  A    between atoms: C_21  and  C_23
   12  A    between atoms: C_23  and  O_25
                            x       y       z     vdW  Elec       q    Type
                         _______ _______ _______ _____ _____    ______ ____

>  <TORSDO>
F 12

$$$$
