BEM
 OpenBabel09132604103D

 33 34  0  0  1  0  0  0  0  0999 V2000
  -35.5730   11.2030  -15.8780 O   0  0  0  0  0  0  0  0  0  0  0  0
  -34.2590   11.6610  -16.1700 C   0  0  2  0  0  3  0  0  0  0  0  0
  -33.2600   11.2210  -15.0740 C   0  0  2  0  0  3  0  0  0  0  0  0
  -33.5710   11.9400  -13.7500 C   0  0  2  0  0  3  0  0  0  0  0  0
  -33.6760   13.4560  -13.9800 C   0  0  1  0  0  3  0  0  0  0  0  0
  -34.6590   13.7350  -15.1360 C   0  0  2  0  0  3  0  0  0  0  0  0
  -34.2530   13.0720  -16.3230 O   0  0  0  0  0  0  0  0  0  0  0  0
  -31.9480   11.5210  -15.4760 O   0  0  0  0  0  0  0  0  0  0  0  0
  -31.6570   10.7890  -16.0800 H   0  0  0  0  0  0  0  0  0  0  0  0
  -32.5670   11.6740  -12.8050 O   0  0  0  0  0  0  0  0  0  0  0  0
  -32.1470   10.8140  -13.0690 H   0  0  0  0  0  0  0  0  0  0  0  0
  -34.1370   14.0830  -12.8100 O   0  0  0  0  0  0  0  0  0  0  0  0
  -34.5570   13.3780  -12.2510 H   0  0  0  0  0  0  0  0  0  0  0  0
  -34.7210   15.2090  -15.4090 C   0  0  0  0  0  0  0  0  0  0  0  0
  -35.6210   15.6780  -16.1590 O   0  0  0  0  0  0  0  0  0  0  0  0
  -33.7630   16.0570  -14.8620 O   0  0  0  0  0  0  0  0  0  0  0  0
  -33.9210   17.0560  -14.8130 H   0  0  0  0  0  0  0  0  0  0  0  0
  -38.3080   10.0880  -18.7530 C   0  0  2  0  0  3  0  0  0  0  0  0
  -37.3090    8.9660  -18.3660 C   0  0  2  0  0  3  0  0  0  0  0  0
  -36.4930    9.3550  -17.1140 C   0  0  2  0  0  3  0  0  0  0  0  0
  -36.3050   10.8790  -17.0510 C   0  0  1  0  0  3  0  0  0  0  0  0
  -37.7120   11.5520  -16.9980 C   0  0  2  0  0  3  0  0  0  0  0  0
  -38.7540   10.7920  -17.6060 O   0  0  0  0  0  0  0  0  0  0  0  0
  -39.4100    9.5410  -19.4280 O   0  0  0  0  0  0  0  0  0  0  0  0
  -39.6850    8.7270  -18.9300 H   0  0  0  0  0  0  0  0  0  0  0  0
  -36.4450    8.7160  -19.4480 O   0  0  0  0  0  0  0  0  0  0  0  0
  -36.7020    7.8330  -19.8210 H   0  0  0  0  0  0  0  0  0  0  0  0
  -35.2460    8.7070  -17.1280 O   0  0  0  0  0  0  0  0  0  0  0  0
  -34.5680    9.3740  -16.8450 H   0  0  0  0  0  0  0  0  0  0  0  0
  -37.7000   12.9510  -17.5540 C   0  0  0  0  0  0  0  0  0  0  0  0
  -38.7710   13.6150  -17.6060 O   0  0  0  0  0  0  0  0  0  0  0  0
  -36.5200   13.5100  -18.0340 O   0  0  0  0  0  0  0  0  0  0  0  0
  -36.5180   14.4200  -18.4770 H   0  0  0  0  0  0  0  0  0  0  0  0
  2  1  1  1  0  0  0
  2  3  1  0  0  0  0
  3  8  1  6  0  0  0
  3  4  1  0  0  0  0
  4 10  1  1  0  0  0
  5  4  1  0  0  0  0
  5 12  1  1  0  0  0
  6 14  1  6  0  0  0
  6  5  1  0  0  0  0
  7  2  1  0  0  0  0
  7  6  1  0  0  0  0
  9  8  1  0  0  0  0
 11 10  1  0  0  0  0
 12 13  1  0  0  0  0
 14 16  1  0  0  0  0
 15 14  2  0  0  0  0
 16 17  1  0  0  0  0
 18 24  1  1  0  0  0
 18 19  1  0  0  0  0
 18 23  1  0  0  0  0
 19 26  1  6  0  0  0
 19 20  1  0  0  0  0
 20 28  1  6  0  0  0
 20 21  1  0  0  0  0
 21 22  1  0  0  0  0
 21  1  1  1  0  0  0
 22 30  1  6  0  0  0
 23 22  1  0  0  0  0
 24 25  1  0  0  0  0
 27 26  1  0  0  0  0
 28 29  1  0  0  0  0
 31 30  2  0  0  0  0
 32 30  1  0  0  0  0
 33 32  1  0  0  0  0
M  END
>  <MODEL>
3

>  <REMARK>
 VINA RESULT:    -6.911      1.522      4.006
 INTER + INTRA:         -11.432
 INTER:                  -9.784
 INTRA:                  -1.647
 UNBOUND:                -1.289
  Name = BEM
  12 active torsions:
  status: ('A' for Active; 'I' for Inactive)
    1  A    between atoms: C_1  and  O_20
    2  A    between atoms: C_2  and  O_3
    3  A    between atoms: C_4  and  O_5
    4  A    between atoms: C_6  and  O_7
    5  A    between atoms: C_8  and  C_10
    6  A    between atoms: C_10  and  O_11
    7  A    between atoms: C_13  and  O_14
    8  A    between atoms: C_15  and  O_16
    9  A    between atoms: C_17  and  O_18
   10  A    between atoms: C_19  and  O_20
   11  A    between atoms: C_21  and  C_23
   12  A    between atoms: C_23  and  O_25
                            x       y       z     vdW  Elec       q    Type
                         _______ _______ _______ _____ _____    ______ ____

>  <TORSDO>
F 12

$$$$
