AMQ
 OpenBabel09132600393D

 17 17  0  0  1  0  0  0  0  0999 V2000
   -1.4140   47.5640   10.8790 C   0  0  0  0  0  2  0  0  0  0  0  0
   -0.9930   47.0160    9.5430 C   0  0  0  0  0  0  0  0  0  0  0  0
   -0.3520   45.8250    9.2630 C   0  0  0  0  0  0  0  0  0  0  0  0
   -1.0970   47.6210    8.3040 C   0  0  0  0  0  0  0  0  0  0  0  0
   -1.7030   48.9520    8.0020 C   0  0  0  0  0  1  0  0  0  0  0  0
   -0.1090   45.7330    7.9420 N   0  0  0  0  0  0  0  0  0  0  0  0
   -0.5690   46.8250    7.4010 O   0  0  0  0  0  0  0  0  0  0  0  0
    0.0140   44.8430   10.1780 O   0  0  0  0  0  0  0  0  0  0  0  0
    0.8900   44.3410   10.0940 H   0  0  0  0  0  0  0  0  0  0  0  0
   -2.6640   46.8510   11.4260 C   0  0  2  0  0  3  0  0  0  0  0  0
   -3.6800   47.8230   11.8360 N   0  0  0  0  0  0  0  0  0  0  0  0
   -3.9160   47.6540   12.8390 H   0  0  0  0  0  0  0  0  0  0  0  0
   -3.2550   48.7780   11.8080 H   0  0  0  0  0  0  0  0  0  0  0  0
   -2.2760   46.0010   12.6020 C   0  0  0  0  0  0  0  0  0  0  0  0
   -1.9890   44.7850   12.4360 O   0  0  0  0  0  0  0  0  0  0  0  0
   -2.2020   46.5640   13.8740 O   0  0  0  0  0  0  0  0  0  0  0  0
   -2.7250   46.1700   14.6470 H   0  0  0  0  0  0  0  0  0  0  0  0
  2  1  1  0  0  0  0
  3  2  1  0  0  0  0
  3  8  1  0  0  0  0
  4  2  2  0  0  0  0
  5  4  1  0  0  0  0
  6  3  2  0  0  0  0
  7  6  1  0  0  0  0
  7  4  1  0  0  0  0
  9  8  1  0  0  0  0
 10  1  1  1  0  0  0
 10 11  1  0  0  0  0
 10 14  1  0  0  0  0
 11 12  1  0  0  0  0
 13 11  1  0  0  0  0
 14 16  1  0  0  0  0
 15 14  2  0  0  0  0
 16 17  1  0  0  0  0
M  END
>  <MODEL>
14

>  <REMARK>
 VINA RESULT:    -4.926      3.453      3.972
 INTER + INTRA:          -6.688
 INTER:                  -6.189
 INTRA:                  -0.500
 UNBOUND:                -0.467
  Name = AMQ
  7 active torsions:
  status: ('A' for Active; 'I' for Inactive)
    1  A    between atoms: N_1  and  CA_2
    2  A    between atoms: CA_2  and  C_3
    3  A    between atoms: CA_2  and  C_6
    4  A    between atoms: C_3  and  OXT_5
    5  A    between atoms: C_6  and  C_7
    6  A    between atoms: C_8  and  O_11
    7  A    between atoms: C_9  and  C_10
                            x       y       z     vdW  Elec       q    Type
                         _______ _______ _______ _____ _____    ______ ____

>  <TORSDO>
F 6

$$$$
