AMQ
 OpenBabel09132600393D

 17 17  0  0  1  0  0  0  0  0999 V2000
   -1.7670   49.5340    8.8730 C   0  0  0  0  0  2  0  0  0  0  0  0
   -1.6110   48.7230    7.6150 C   0  0  0  0  0  0  0  0  0  0  0  0
   -0.4910   48.5690    6.8230 C   0  0  0  0  0  0  0  0  0  0  0  0
   -2.5820   48.0060    6.9400 C   0  0  0  0  0  0  0  0  0  0  0  0
   -4.0100   47.8330    7.3370 C   0  0  0  0  0  1  0  0  0  0  0  0
   -0.7840   47.8000    5.7580 N   0  0  0  0  0  0  0  0  0  0  0  0
   -2.0430   47.4810    5.8620 O   0  0  0  0  0  0  0  0  0  0  0  0
    0.7690   49.1160    7.0480 O   0  0  0  0  0  0  0  0  0  0  0  0
    1.3050   48.8880    7.8760 H   0  0  0  0  0  0  0  0  0  0  0  0
   -0.9020   48.9850   10.0230 C   0  0  2  0  0  3  0  0  0  0  0  0
   -1.7350   48.6290   11.1750 N   0  0  0  0  0  0  0  0  0  0  0  0
   -2.6540   49.1170   11.0830 H   0  0  0  0  0  0  0  0  0  0  0  0
   -1.9550   47.6080   11.1210 H   0  0  0  0  0  0  0  0  0  0  0  0
    0.1020   50.0250   10.4280 C   0  0  0  0  0  0  0  0  0  0  0  0
    0.4920   50.0950   11.6250 O   0  0  0  0  0  0  0  0  0  0  0  0
    0.6270   50.8950    9.4760 O   0  0  0  0  0  0  0  0  0  0  0  0
    1.2630   51.6360    9.7450 H   0  0  0  0  0  0  0  0  0  0  0  0
  2  1  1  0  0  0  0
  3  8  1  0  0  0  0
  3  2  1  0  0  0  0
  4  5  1  0  0  0  0
  4  2  2  0  0  0  0
  6  7  1  0  0  0  0
  6  3  2  0  0  0  0
  7  4  1  0  0  0  0
  8  9  1  0  0  0  0
 10  1  1  6  0  0  0
 10 14  1  0  0  0  0
 10 11  1  0  0  0  0
 12 11  1  0  0  0  0
 13 11  1  0  0  0  0
 14 15  2  0  0  0  0
 16 17  1  0  0  0  0
 16 14  1  0  0  0  0
M  END
>  <MODEL>
1

>  <REMARK>
 VINA RESULT:    -5.668      0.000      0.000
 INTER + INTRA:          -7.626
 INTER:                  -7.159
 INTRA:                  -0.467
 UNBOUND:                -0.467
  Name = AMQ
  7 active torsions:
  status: ('A' for Active; 'I' for Inactive)
    1  A    between atoms: N_1  and  CA_2
    2  A    between atoms: CA_2  and  C_3
    3  A    between atoms: CA_2  and  C_6
    4  A    between atoms: C_3  and  OXT_5
    5  A    between atoms: C_6  and  C_7
    6  A    between atoms: C_8  and  O_11
    7  A    between atoms: C_9  and  C_10
                            x       y       z     vdW  Elec       q    Type
                         _______ _______ _______ _____ _____    ______ ____

>  <TORSDO>
F 6

$$$$
