AMQ
 OpenBabel09132600393D

 17 17  0  0  1  0  0  0  0  0999 V2000
   -2.6780   48.0780   11.1910 C   0  0  0  0  0  2  0  0  0  0  0  0
   -2.3470   46.7100   11.7250 C   0  0  0  0  0  0  0  0  0  0  0  0
   -1.8560   45.6150   11.0430 C   0  0  0  0  0  0  0  0  0  0  0  0
   -2.5280   46.2320   13.0100 C   0  0  0  0  0  0  0  0  0  0  0  0
   -3.0550   46.9880   14.1840 C   0  0  0  0  0  1  0  0  0  0  0  0
   -1.7440   44.5650   11.8780 N   0  0  0  0  0  0  0  0  0  0  0  0
   -2.1540   44.9720   13.0460 O   0  0  0  0  0  0  0  0  0  0  0  0
   -1.5210   45.5570    9.6940 O   0  0  0  0  0  0  0  0  0  0  0  0
   -0.6760   45.0960    9.3760 H   0  0  0  0  0  0  0  0  0  0  0  0
   -1.4290   48.9740   11.0900 C   0  0  2  0  0  3  0  0  0  0  0  0
   -1.1200   49.5820   12.3870 N   0  0  0  0  0  0  0  0  0  0  0  0
   -1.8910   50.2420   12.6360 H   0  0  0  0  0  0  0  0  0  0  0  0
   -1.1470   48.8350   13.1180 H   0  0  0  0  0  0  0  0  0  0  0  0
   -1.6740   50.0520   10.0730 C   0  0  0  0  0  0  0  0  0  0  0  0
   -1.2060   49.9390    8.9080 O   0  0  0  0  0  0  0  0  0  0  0  0
   -2.4440   51.1620   10.4070 O   0  0  0  0  0  0  0  0  0  0  0  0
   -3.2000   51.0870   11.0770 H   0  0  0  0  0  0  0  0  0  0  0  0
  1  2  1  0  0  0  0
  2  4  2  0  0  0  0
  3  2  1  0  0  0  0
  3  6  2  0  0  0  0
  4  7  1  0  0  0  0
  4  5  1  0  0  0  0
  6  7  1  0  0  0  0
  8  3  1  0  0  0  0
  9  8  1  0  0  0  0
 10  1  1  1  0  0  0
 10 11  1  0  0  0  0
 11 12  1  0  0  0  0
 11 13  1  0  0  0  0
 14 16  1  0  0  0  0
 14 10  1  0  0  0  0
 15 14  2  0  0  0  0
 16 17  1  0  0  0  0
M  END
>  <MODEL>
17

>  <REMARK>
 VINA RESULT:    -4.828      3.570      4.856
 INTER + INTRA:          -6.565
 INTER:                  -6.321
 INTRA:                  -0.244
 UNBOUND:                -0.467
  Name = AMQ
  7 active torsions:
  status: ('A' for Active; 'I' for Inactive)
    1  A    between atoms: N_1  and  CA_2
    2  A    between atoms: CA_2  and  C_3
    3  A    between atoms: CA_2  and  C_6
    4  A    between atoms: C_3  and  OXT_5
    5  A    between atoms: C_6  and  C_7
    6  A    between atoms: C_8  and  O_11
    7  A    between atoms: C_9  and  C_10
                            x       y       z     vdW  Elec       q    Type
                         _______ _______ _______ _____ _____    ______ ____

>  <TORSDO>
F 6

$$$$
