AMQ
 OpenBabel09132600393D

 17 17  0  0  1  0  0  0  0  0999 V2000
   -2.3110   47.4250    6.5980 C   0  0  0  0  0  2  0  0  0  0  0  0
   -1.8000   48.4880    7.5340 C   0  0  0  0  0  0  0  0  0  0  0  0
   -0.5630   49.1010    7.5480 C   0  0  0  0  0  0  0  0  0  0  0  0
   -2.4410   49.0360    8.6300 C   0  0  0  0  0  0  0  0  0  0  0  0
   -3.8200   48.7270    9.1120 C   0  0  0  0  0  1  0  0  0  0  0  0
   -0.4890   49.9630    8.5790 N   0  0  0  0  0  0  0  0  0  0  0  0
   -1.6300   49.8970    9.2040 O   0  0  0  0  0  0  0  0  0  0  0  0
    0.4830   48.8860    6.6550 O   0  0  0  0  0  0  0  0  0  0  0  0
    1.4410   49.1060    6.8990 H   0  0  0  0  0  0  0  0  0  0  0  0
   -1.6180   46.0710    6.8330 C   0  0  2  0  0  3  0  0  0  0  0  0
   -0.4020   45.9610    6.0240 N   0  0  0  0  0  0  0  0  0  0  0  0
   -0.3700   46.7700    5.3630 H   0  0  0  0  0  0  0  0  0  0  0  0
    0.4260   46.0830    6.6520 H   0  0  0  0  0  0  0  0  0  0  0  0
   -2.5650   44.9610    6.4740 C   0  0  0  0  0  0  0  0  0  0  0  0
   -2.9420   44.8150    5.2790 O   0  0  0  0  0  0  0  0  0  0  0  0
   -3.0030   44.0740    7.4530 O   0  0  0  0  0  0  0  0  0  0  0  0
   -2.3530   43.6710    8.1170 H   0  0  0  0  0  0  0  0  0  0  0  0
  1  2  1  0  0  0  0
  2  3  1  0  0  0  0
  2  4  2  0  0  0  0
  3  6  2  0  0  0  0
  4  5  1  0  0  0  0
  4  7  1  0  0  0  0
  6  7  1  0  0  0  0
  8  9  1  0  0  0  0
  8  3  1  0  0  0  0
 10  1  1  6  0  0  0
 11 13  1  0  0  0  0
 11 10  1  0  0  0  0
 12 11  1  0  0  0  0
 14 10  1  0  0  0  0
 14 16  1  0  0  0  0
 15 14  2  0  0  0  0
 16 17  1  0  0  0  0
M  END
>  <MODEL>
11

>  <REMARK>
 VINA RESULT:    -5.002      2.215      4.769
 INTER + INTRA:          -6.785
 INTER:                  -6.420
 INTRA:                  -0.365
 UNBOUND:                -0.467
  Name = AMQ
  7 active torsions:
  status: ('A' for Active; 'I' for Inactive)
    1  A    between atoms: N_1  and  CA_2
    2  A    between atoms: CA_2  and  C_3
    3  A    between atoms: CA_2  and  C_6
    4  A    between atoms: C_3  and  OXT_5
    5  A    between atoms: C_6  and  C_7
    6  A    between atoms: C_8  and  O_11
    7  A    between atoms: C_9  and  C_10
                            x       y       z     vdW  Elec       q    Type
                         _______ _______ _______ _____ _____    ______ ____

>  <TORSDO>
F 6

$$$$
