AMQ
 OpenBabel09132600393D

 17 17  0  0  1  0  0  0  0  0999 V2000
   -2.1190   47.6230   10.3470 C   0  0  0  0  0  2  0  0  0  0  0  0
   -1.1030   48.6990   10.6190 C   0  0  0  0  0  0  0  0  0  0  0  0
   -0.8310   49.3460   11.8080 C   0  0  0  0  0  0  0  0  0  0  0  0
   -0.2620   49.3230    9.7160 C   0  0  0  0  0  0  0  0  0  0  0  0
   -0.1370   49.0340    8.2560 C   0  0  0  0  0  1  0  0  0  0  0  0
    0.1180   50.2810   11.6150 N   0  0  0  0  0  0  0  0  0  0  0  0
    0.4340   50.2380   10.3530 O   0  0  0  0  0  0  0  0  0  0  0  0
   -1.4300   49.1070   13.0410 O   0  0  0  0  0  0  0  0  0  0  0  0
   -1.4000   49.7930   13.7860 H   0  0  0  0  0  0  0  0  0  0  0  0
   -1.5250   46.2130   10.5210 C   0  0  2  0  0  3  0  0  0  0  0  0
   -1.7290   45.4100    9.3120 N   0  0  0  0  0  0  0  0  0  0  0  0
   -2.7060   45.5610    8.9750 H   0  0  0  0  0  0  0  0  0  0  0  0
   -1.1120   45.7880    8.5560 H   0  0  0  0  0  0  0  0  0  0  0  0
   -2.1830   45.5390   11.6910 C   0  0  0  0  0  0  0  0  0  0  0  0
   -2.3430   46.1660   12.7730 O   0  0  0  0  0  0  0  0  0  0  0  0
   -2.6450   44.2310   11.5720 O   0  0  0  0  0  0  0  0  0  0  0  0
   -3.1770   43.9410   10.7610 H   0  0  0  0  0  0  0  0  0  0  0  0
  1  2  1  0  0  0  0
  2  3  1  0  0  0  0
  3  8  1  0  0  0  0
  4  7  1  0  0  0  0
  4  2  2  0  0  0  0
  5  4  1  0  0  0  0
  6  3  2  0  0  0  0
  7  6  1  0  0  0  0
  8  9  1  0  0  0  0
 10  1  1  6  0  0  0
 10 14  1  0  0  0  0
 11 10  1  0  0  0  0
 12 11  1  0  0  0  0
 13 11  1  0  0  0  0
 14 15  2  0  0  0  0
 16 14  1  0  0  0  0
 17 16  1  0  0  0  0
M  END
>  <MODEL>
20

>  <REMARK>
 VINA RESULT:    -4.682      3.177      4.979
 INTER + INTRA:          -6.381
 INTER:                  -5.875
 INTRA:                  -0.505
 UNBOUND:                -0.467
  Name = AMQ
  7 active torsions:
  status: ('A' for Active; 'I' for Inactive)
    1  A    between atoms: N_1  and  CA_2
    2  A    between atoms: CA_2  and  C_3
    3  A    between atoms: CA_2  and  C_6
    4  A    between atoms: C_3  and  OXT_5
    5  A    between atoms: C_6  and  C_7
    6  A    between atoms: C_8  and  O_11
    7  A    between atoms: C_9  and  C_10
                            x       y       z     vdW  Elec       q    Type
                         _______ _______ _______ _____ _____    ______ ____

>  <TORSDO>
F 6

$$$$
