AMQ
 OpenBabel09132600393D

 17 17  0  0  1  0  0  0  0  0999 V2000
   -1.6430   48.7820    8.1000 C   0  0  0  0  0  2  0  0  0  0  0  0
   -1.6220   47.2900    8.2970 C   0  0  0  0  0  0  0  0  0  0  0  0
   -1.3180   46.3040    7.3790 C   0  0  0  0  0  0  0  0  0  0  0  0
   -1.9700   46.5760    9.4290 C   0  0  0  0  0  0  0  0  0  0  0  0
   -2.4050   47.1340   10.7440 C   0  0  0  0  0  1  0  0  0  0  0  0
   -1.4670   45.0910    7.9430 N   0  0  0  0  0  0  0  0  0  0  0  0
   -1.8560   45.2930    9.1690 O   0  0  0  0  0  0  0  0  0  0  0  0
   -0.9230   46.4900    6.0580 O   0  0  0  0  0  0  0  0  0  0  0  0
   -1.4830   46.1520    5.2850 H   0  0  0  0  0  0  0  0  0  0  0  0
   -0.2260   49.3840    8.1150 C   0  0  2  0  0  3  0  0  0  0  0  0
    0.5360   48.9520    6.9410 N   0  0  0  0  0  0  0  0  0  0  0  0
    0.2140   47.9950    6.6710 H   0  0  0  0  0  0  0  0  0  0  0  0
    0.2800   49.5680    6.1360 H   0  0  0  0  0  0  0  0  0  0  0  0
    0.4840   48.9470    9.3650 C   0  0  0  0  0  0  0  0  0  0  0  0
    1.2370   47.9360    9.3440 O   0  0  0  0  0  0  0  0  0  0  0  0
    0.3360   49.6760   10.5420 O   0  0  0  0  0  0  0  0  0  0  0  0
    1.1370   50.1030   10.9930 H   0  0  0  0  0  0  0  0  0  0  0  0
  1  2  1  0  0  0  0
  2  4  2  0  0  0  0
  3  6  2  0  0  0  0
  3  2  1  0  0  0  0
  4  5  1  0  0  0  0
  6  7  1  0  0  0  0
  7  4  1  0  0  0  0
  8  3  1  0  0  0  0
  9  8  1  0  0  0  0
 10  1  1  6  0  0  0
 10 14  1  0  0  0  0
 11 10  1  0  0  0  0
 12 11  1  0  0  0  0
 13 11  1  0  0  0  0
 14 16  1  0  0  0  0
 15 14  2  0  0  0  0
 16 17  1  0  0  0  0
M  END
>  <MODEL>
18

>  <REMARK>
 VINA RESULT:    -4.736      2.305      2.977
 INTER + INTRA:          -6.448
 INTER:                  -6.308
 INTRA:                  -0.140
 UNBOUND:                -0.467
  Name = AMQ
  7 active torsions:
  status: ('A' for Active; 'I' for Inactive)
    1  A    between atoms: N_1  and  CA_2
    2  A    between atoms: CA_2  and  C_3
    3  A    between atoms: CA_2  and  C_6
    4  A    between atoms: C_3  and  OXT_5
    5  A    between atoms: C_6  and  C_7
    6  A    between atoms: C_8  and  O_11
    7  A    between atoms: C_9  and  C_10
                            x       y       z     vdW  Elec       q    Type
                         _______ _______ _______ _____ _____    ______ ____

>  <TORSDO>
F 6

$$$$
