AMQ
 OpenBabel09132600393D

 17 17  0  0  1  0  0  0  0  0999 V2000
   -1.5750   49.0660    8.1610 C   0  0  0  0  0  2  0  0  0  0  0  0
   -1.0540   49.4200    9.5270 C   0  0  0  0  0  0  0  0  0  0  0  0
   -0.1490   50.4030    9.8760 C   0  0  0  0  0  0  0  0  0  0  0  0
   -1.3200   48.7910   10.7300 C   0  0  0  0  0  0  0  0  0  0  0  0
   -2.2330   47.6310   10.9530 C   0  0  0  0  0  1  0  0  0  0  0  0
    0.0900   50.3600   11.2000 N   0  0  0  0  0  0  0  0  0  0  0  0
   -0.6280   49.3830   11.6770 O   0  0  0  0  0  0  0  0  0  0  0  0
    0.4570   51.3170    9.0200 O   0  0  0  0  0  0  0  0  0  0  0  0
    0.3440   51.2580    8.0150 H   0  0  0  0  0  0  0  0  0  0  0  0
   -0.5590   48.2360    7.3550 C   0  0  2  0  0  3  0  0  0  0  0  0
    0.3550   49.1090    6.6150 N   0  0  0  0  0  0  0  0  0  0  0  0
    1.3370   48.8350    6.8480 H   0  0  0  0  0  0  0  0  0  0  0  0
    0.2470   48.9120    5.5940 H   0  0  0  0  0  0  0  0  0  0  0  0
   -1.2970   47.3470    6.3940 C   0  0  0  0  0  0  0  0  0  0  0  0
   -2.4220   47.6970    5.9470 O   0  0  0  0  0  0  0  0  0  0  0  0
   -0.7240   46.1510    5.9720 O   0  0  0  0  0  0  0  0  0  0  0  0
   -0.0070   46.1420    5.2560 H   0  0  0  0  0  0  0  0  0  0  0  0
  1  2  1  0  0  0  0
  2  3  1  0  0  0  0
  2  4  2  0  0  0  0
  3  6  2  0  0  0  0
  4  5  1  0  0  0  0
  4  7  1  0  0  0  0
  6  7  1  0  0  0  0
  8  3  1  0  0  0  0
  9  8  1  0  0  0  0
 10  1  1  6  0  0  0
 11 12  1  0  0  0  0
 11 10  1  0  0  0  0
 13 11  1  0  0  0  0
 14 10  1  0  0  0  0
 15 14  2  0  0  0  0
 16 14  1  0  0  0  0
 17 16  1  0  0  0  0
M  END
>  <MODEL>
5

>  <REMARK>
 VINA RESULT:    -5.303      1.625      4.622
 INTER + INTRA:          -7.165
 INTER:                  -6.801
 INTRA:                  -0.364
 UNBOUND:                -0.467
  Name = AMQ
  7 active torsions:
  status: ('A' for Active; 'I' for Inactive)
    1  A    between atoms: N_1  and  CA_2
    2  A    between atoms: CA_2  and  C_3
    3  A    between atoms: CA_2  and  C_6
    4  A    between atoms: C_3  and  OXT_5
    5  A    between atoms: C_6  and  C_7
    6  A    between atoms: C_8  and  O_11
    7  A    between atoms: C_9  and  C_10
                            x       y       z     vdW  Elec       q    Type
                         _______ _______ _______ _____ _____    ______ ____

>  <TORSDO>
F 6

$$$$
