AMQ
 OpenBabel09132600393D

 17 17  0  0  1  0  0  0  0  0999 V2000
   -3.0040   47.2880   12.5430 C   0  0  0  0  0  2  0  0  0  0  0  0
   -2.1310   48.5100   12.6350 C   0  0  0  0  0  0  0  0  0  0  0  0
   -1.9700   49.3760   13.6980 C   0  0  0  0  0  0  0  0  0  0  0  0
   -1.3450   49.0710   11.6440 C   0  0  0  0  0  0  0  0  0  0  0  0
   -1.1480   48.5580   10.2560 C   0  0  0  0  0  1  0  0  0  0  0  0
   -1.1330   50.3730   13.3560 N   0  0  0  0  0  0  0  0  0  0  0  0
   -0.7800   50.1570   12.1210 O   0  0  0  0  0  0  0  0  0  0  0  0
   -2.5690   49.2760   14.9500 O   0  0  0  0  0  0  0  0  0  0  0  0
   -2.4050   48.4800   15.5540 H   0  0  0  0  0  0  0  0  0  0  0  0
   -2.5460   46.1790   13.5070 C   0  0  2  0  0  3  0  0  0  0  0  0
   -2.1930   44.9630   12.7710 N   0  0  0  0  0  0  0  0  0  0  0  0
   -2.0220   45.2180   11.7720 H   0  0  0  0  0  0  0  0  0  0  0  0
   -1.2740   44.6140   13.1290 H   0  0  0  0  0  0  0  0  0  0  0  0
   -3.6530   45.8770   14.4770 C   0  0  0  0  0  0  0  0  0  0  0  0
   -4.4220   46.7980   14.8640 O   0  0  0  0  0  0  0  0  0  0  0  0
   -3.8500   44.5750   14.9270 O   0  0  0  0  0  0  0  0  0  0  0  0
   -4.7650   44.2630   15.2290 H   0  0  0  0  0  0  0  0  0  0  0  0
  1  2  1  0  0  0  0
  2  3  1  0  0  0  0
  3  8  1  0  0  0  0
  4  7  1  0  0  0  0
  4  2  2  0  0  0  0
  5  4  1  0  0  0  0
  6  3  2  0  0  0  0
  7  6  1  0  0  0  0
  8  9  1  0  0  0  0
 10  1  1  6  0  0  0
 10 14  1  0  0  0  0
 11 13  1  0  0  0  0
 11 10  1  0  0  0  0
 12 11  1  0  0  0  0
 14 15  2  0  0  0  0
 14 16  1  0  0  0  0
 16 17  1  0  0  0  0
M  END
>  <MODEL>
3

>  <REMARK>
 VINA RESULT:    -5.481      4.411      6.478
 INTER + INTRA:          -7.390
 INTER:                  -6.938
 INTRA:                  -0.452
 UNBOUND:                -0.467
  Name = AMQ
  7 active torsions:
  status: ('A' for Active; 'I' for Inactive)
    1  A    between atoms: N_1  and  CA_2
    2  A    between atoms: CA_2  and  C_3
    3  A    between atoms: CA_2  and  C_6
    4  A    between atoms: C_3  and  OXT_5
    5  A    between atoms: C_6  and  C_7
    6  A    between atoms: C_8  and  O_11
    7  A    between atoms: C_9  and  C_10
                            x       y       z     vdW  Elec       q    Type
                         _______ _______ _______ _____ _____    ______ ____

>  <TORSDO>
F 6

$$$$
