AMQ
 OpenBabel09132600393D

 17 17  0  0  1  0  0  0  0  0999 V2000
   -2.1990   47.2710   10.8160 C   0  0  0  0  0  2  0  0  0  0  0  0
   -1.1420   48.3400   10.7400 C   0  0  0  0  0  0  0  0  0  0  0  0
   -0.1900   48.5410    9.7600 C   0  0  0  0  0  0  0  0  0  0  0  0
   -0.8520   49.3180   11.6730 C   0  0  0  0  0  0  0  0  0  0  0  0
   -1.5610   49.5670   12.9630 C   0  0  0  0  0  1  0  0  0  0  0  0
    0.6000   49.5790   10.0930 N   0  0  0  0  0  0  0  0  0  0  0  0
    0.1740   50.0190   11.2430 O   0  0  0  0  0  0  0  0  0  0  0  0
   -0.0280   47.8020    8.5930 O   0  0  0  0  0  0  0  0  0  0  0  0
    0.1570   46.8060    8.6170 H   0  0  0  0  0  0  0  0  0  0  0  0
   -1.5930   45.8570   10.7460 C   0  0  2  0  0  3  0  0  0  0  0  0
   -1.8020   45.2670    9.4210 N   0  0  0  0  0  0  0  0  0  0  0  0
   -1.5200   44.2620    9.4580 H   0  0  0  0  0  0  0  0  0  0  0  0
   -2.8290   45.2600    9.2210 H   0  0  0  0  0  0  0  0  0  0  0  0
   -2.2360   44.9910   11.7910 C   0  0  0  0  0  0  0  0  0  0  0  0
   -2.8800   43.9620   11.4500 O   0  0  0  0  0  0  0  0  0  0  0  0
   -2.0970   45.3070   13.1400 O   0  0  0  0  0  0  0  0  0  0  0  0
   -1.1800   45.3750   13.5650 H   0  0  0  0  0  0  0  0  0  0  0  0
  2  1  1  0  0  0  0
  2  4  2  0  0  0  0
  3  6  2  0  0  0  0
  3  2  1  0  0  0  0
  4  5  1  0  0  0  0
  6  7  1  0  0  0  0
  7  4  1  0  0  0  0
  8  9  1  0  0  0  0
  8  3  1  0  0  0  0
 10  1  1  6  0  0  0
 10 14  1  0  0  0  0
 11 12  1  0  0  0  0
 11 10  1  0  0  0  0
 13 11  1  0  0  0  0
 14 16  1  0  0  0  0
 15 14  2  0  0  0  0
 16 17  1  0  0  0  0
M  END
>  <MODEL>
9

>  <REMARK>
 VINA RESULT:    -5.041      3.442      4.989
 INTER + INTRA:          -6.835
 INTER:                  -6.517
 INTRA:                  -0.318
 UNBOUND:                -0.467
  Name = AMQ
  7 active torsions:
  status: ('A' for Active; 'I' for Inactive)
    1  A    between atoms: N_1  and  CA_2
    2  A    between atoms: CA_2  and  C_3
    3  A    between atoms: CA_2  and  C_6
    4  A    between atoms: C_3  and  OXT_5
    5  A    between atoms: C_6  and  C_7
    6  A    between atoms: C_8  and  O_11
    7  A    between atoms: C_9  and  C_10
                            x       y       z     vdW  Elec       q    Type
                         _______ _______ _______ _____ _____    ______ ____

>  <TORSDO>
F 6

$$$$
