AMQ
 OpenBabel09132600393D

 17 17  0  0  1  0  0  0  0  0999 V2000
   -2.9900   47.1380   10.6560 C   0  0  0  0  0  2  0  0  0  0  0  0
   -3.2990   45.7740   11.2100 C   0  0  0  0  0  0  0  0  0  0  0  0
   -3.5220   44.5960   10.5240 C   0  0  0  0  0  0  0  0  0  0  0  0
   -3.4950   45.4160   12.5310 C   0  0  0  0  0  0  0  0  0  0  0  0
   -3.3950   46.3040   13.7270 C   0  0  0  0  0  1  0  0  0  0  0  0
   -3.8160   43.6090   11.3900 N   0  0  0  0  0  0  0  0  0  0  0  0
   -3.7900   44.1360   12.5810 O   0  0  0  0  0  0  0  0  0  0  0  0
   -3.4690   44.4130    9.1450 O   0  0  0  0  0  0  0  0  0  0  0  0
   -3.9650   43.6560    8.6920 H   0  0  0  0  0  0  0  0  0  0  0  0
   -1.4800   47.3400   10.4330 C   0  0  2  0  0  3  0  0  0  0  0  0
   -1.0710   48.6890   10.8310 N   0  0  0  0  0  0  0  0  0  0  0  0
   -1.8030   49.0840   11.4640 H   0  0  0  0  0  0  0  0  0  0  0  0
   -0.2080   48.6140   11.4170 H   0  0  0  0  0  0  0  0  0  0  0  0
   -1.1610   47.1250    8.9800 C   0  0  0  0  0  0  0  0  0  0  0  0
    0.0370   47.1350    8.5880 O   0  0  0  0  0  0  0  0  0  0  0  0
   -2.1870   46.8840    8.0700 O   0  0  0  0  0  0  0  0  0  0  0  0
   -3.0780   46.5150    8.3790 H   0  0  0  0  0  0  0  0  0  0  0  0
  1  2  1  0  0  0  0
  2  4  2  0  0  0  0
  3  2  1  0  0  0  0
  3  6  2  0  0  0  0
  4  7  1  0  0  0  0
  4  5  1  0  0  0  0
  6  7  1  0  0  0  0
  8  3  1  0  0  0  0
  9  8  1  0  0  0  0
 10  1  1  6  0  0  0
 10 11  1  0  0  0  0
 11 13  1  0  0  0  0
 11 12  1  0  0  0  0
 14 10  1  0  0  0  0
 15 14  2  0  0  0  0
 16 17  1  0  0  0  0
 16 14  1  0  0  0  0
M  END
>  <MODEL>
16

>  <REMARK>
 VINA RESULT:    -4.866      4.173      5.394
 INTER + INTRA:          -6.613
 INTER:                  -6.102
 INTRA:                  -0.512
 UNBOUND:                -0.467
  Name = AMQ
  7 active torsions:
  status: ('A' for Active; 'I' for Inactive)
    1  A    between atoms: N_1  and  CA_2
    2  A    between atoms: CA_2  and  C_3
    3  A    between atoms: CA_2  and  C_6
    4  A    between atoms: C_3  and  OXT_5
    5  A    between atoms: C_6  and  C_7
    6  A    between atoms: C_8  and  O_11
    7  A    between atoms: C_9  and  C_10
                            x       y       z     vdW  Elec       q    Type
                         _______ _______ _______ _____ _____    ______ ____

>  <TORSDO>
F 6

$$$$
