AMQ
 OpenBabel09132600393D

 17 17  0  0  1  0  0  0  0  0999 V2000
   -2.5420   46.8170   11.9540 C   0  0  0  0  0  2  0  0  0  0  0  0
   -3.3200   46.1000   10.8830 C   0  0  0  0  0  0  0  0  0  0  0  0
   -3.5120   44.7420   10.7210 C   0  0  0  0  0  0  0  0  0  0  0  0
   -3.9580   46.6470    9.7850 C   0  0  0  0  0  0  0  0  0  0  0  0
   -4.0610   48.0940    9.4350 C   0  0  0  0  0  1  0  0  0  0  0  0
   -4.2290   44.5100    9.6060 N   0  0  0  0  0  0  0  0  0  0  0  0
   -4.4780   45.6720    9.0720 O   0  0  0  0  0  0  0  0  0  0  0  0
   -3.0470   43.7310   11.5560 O   0  0  0  0  0  0  0  0  0  0  0  0
   -2.2120   43.8490   12.1170 H   0  0  0  0  0  0  0  0  0  0  0  0
   -3.3770   47.0210   13.2320 C   0  0  2  0  0  3  0  0  0  0  0  0
   -3.0310   48.2880   13.8810 N   0  0  0  0  0  0  0  0  0  0  0  0
   -2.5550   48.9010   13.1810 H   0  0  0  0  0  0  0  0  0  0  0  0
   -3.9170   48.7860   14.1280 H   0  0  0  0  0  0  0  0  0  0  0  0
   -3.1200   45.8830   14.1780 C   0  0  0  0  0  0  0  0  0  0  0  0
   -2.0310   45.2490   14.1240 O   0  0  0  0  0  0  0  0  0  0  0  0
   -4.0710   45.5460   15.1370 O   0  0  0  0  0  0  0  0  0  0  0  0
   -5.0330   45.8490   15.0430 H   0  0  0  0  0  0  0  0  0  0  0  0
  2  1  1  0  0  0  0
  3  2  1  0  0  0  0
  3  8  1  0  0  0  0
  4  2  2  0  0  0  0
  5  4  1  0  0  0  0
  6  3  2  0  0  0  0
  7  6  1  0  0  0  0
  7  4  1  0  0  0  0
  8  9  1  0  0  0  0
 10  1  1  6  0  0  0
 10 11  1  0  0  0  0
 10 14  1  0  0  0  0
 11 13  1  0  0  0  0
 12 11  1  0  0  0  0
 14 16  1  0  0  0  0
 15 14  2  0  0  0  0
 17 16  1  0  0  0  0
M  END
>  <MODEL>
8

>  <REMARK>
 VINA RESULT:    -5.108      4.827      5.574
 INTER + INTRA:          -6.919
 INTER:                  -6.496
 INTRA:                  -0.422
 UNBOUND:                -0.467
  Name = AMQ
  7 active torsions:
  status: ('A' for Active; 'I' for Inactive)
    1  A    between atoms: N_1  and  CA_2
    2  A    between atoms: CA_2  and  C_3
    3  A    between atoms: CA_2  and  C_6
    4  A    between atoms: C_3  and  OXT_5
    5  A    between atoms: C_6  and  C_7
    6  A    between atoms: C_8  and  O_11
    7  A    between atoms: C_9  and  C_10
                            x       y       z     vdW  Elec       q    Type
                         _______ _______ _______ _____ _____    ______ ____

>  <TORSDO>
F 6

$$$$
