AMQ
 OpenBabel09132600393D

 17 17  0  0  1  0  0  0  0  0999 V2000
   -2.3960   45.5310   11.9790 C   0  0  0  0  0  2  0  0  0  0  0  0
   -2.9090   46.3020   13.1650 C   0  0  0  0  0  0  0  0  0  0  0  0
   -3.6550   45.8440   14.2330 C   0  0  0  0  0  0  0  0  0  0  0  0
   -2.8000   47.6590   13.4100 C   0  0  0  0  0  0  0  0  0  0  0  0
   -2.0980   48.6700   12.5650 C   0  0  0  0  0  1  0  0  0  0  0  0
   -3.9530   46.8660   15.0570 N   0  0  0  0  0  0  0  0  0  0  0  0
   -3.4240   47.9350   14.5330 O   0  0  0  0  0  0  0  0  0  0  0  0
   -4.0680   44.5350   14.4590 O   0  0  0  0  0  0  0  0  0  0  0  0
   -4.3960   43.9450   13.7040 H   0  0  0  0  0  0  0  0  0  0  0  0
   -3.5420   44.9380   11.1390 C   0  0  2  0  0  3  0  0  0  0  0  0
   -3.6350   43.4900   11.3350 N   0  0  0  0  0  0  0  0  0  0  0  0
   -4.5430   43.1590   10.9360 H   0  0  0  0  0  0  0  0  0  0  0  0
   -2.8940   43.0290   10.7590 H   0  0  0  0  0  0  0  0  0  0  0  0
   -3.2950   45.2350    9.6870 C   0  0  0  0  0  0  0  0  0  0  0  0
   -2.9760   46.4000    9.3260 O   0  0  0  0  0  0  0  0  0  0  0  0
   -3.3900   44.2180    8.7420 O   0  0  0  0  0  0  0  0  0  0  0  0
   -2.6740   43.5040    8.6740 H   0  0  0  0  0  0  0  0  0  0  0  0
  1  2  1  0  0  0  0
  2  4  2  0  0  0  0
  2  3  1  0  0  0  0
  3  8  1  0  0  0  0
  3  6  2  0  0  0  0
  4  7  1  0  0  0  0
  5  4  1  0  0  0  0
  7  6  1  0  0  0  0
  9  8  1  0  0  0  0
 10 11  1  0  0  0  0
 10  1  1  1  0  0  0
 12 11  1  0  0  0  0
 13 11  1  0  0  0  0
 14 10  1  0  0  0  0
 15 14  2  0  0  0  0
 16 14  1  0  0  0  0
 17 16  1  0  0  0  0
M  END
>  <MODEL>
2

>  <REMARK>
 VINA RESULT:    -5.514      4.891      7.160
 INTER + INTRA:          -7.432
 INTER:                  -7.087
 INTRA:                  -0.344
 UNBOUND:                -0.467
  Name = AMQ
  7 active torsions:
  status: ('A' for Active; 'I' for Inactive)
    1  A    between atoms: N_1  and  CA_2
    2  A    between atoms: CA_2  and  C_3
    3  A    between atoms: CA_2  and  C_6
    4  A    between atoms: C_3  and  OXT_5
    5  A    between atoms: C_6  and  C_7
    6  A    between atoms: C_8  and  O_11
    7  A    between atoms: C_9  and  C_10
                            x       y       z     vdW  Elec       q    Type
                         _______ _______ _______ _____ _____    ______ ____

>  <TORSDO>
F 6

$$$$
