AMQ
 OpenBabel09132600393D

 17 17  0  0  1  0  0  0  0  0999 V2000
   -0.7910   46.2570    9.5570 C   0  0  0  0  0  2  0  0  0  0  0  0
   -0.8210   46.2700    8.0530 C   0  0  0  0  0  0  0  0  0  0  0  0
   -0.4980   45.2530    7.1760 C   0  0  0  0  0  0  0  0  0  0  0  0
   -1.1180   47.3300    7.2160 C   0  0  0  0  0  0  0  0  0  0  0  0
   -1.5270   48.7070    7.6230 C   0  0  0  0  0  1  0  0  0  0  0  0
   -0.6110   45.6870    5.9070 N   0  0  0  0  0  0  0  0  0  0  0  0
   -0.9840   46.9340    5.9700 O   0  0  0  0  0  0  0  0  0  0  0  0
   -0.1010   43.9620    7.5090 O   0  0  0  0  0  0  0  0  0  0  0  0
    0.1380   43.2810    6.7990 H   0  0  0  0  0  0  0  0  0  0  0  0
   -2.2060   46.2940   10.1620 C   0  0  2  0  0  3  0  0  0  0  0  0
   -2.3160   47.3580   11.1630 N   0  0  0  0  0  0  0  0  0  0  0  0
   -2.8880   47.0030   11.9630 H   0  0  0  0  0  0  0  0  0  0  0  0
   -1.3660   47.5380   11.5600 H   0  0  0  0  0  0  0  0  0  0  0  0
   -2.5070   44.9670   10.8000 C   0  0  0  0  0  0  0  0  0  0  0  0
   -3.3940   44.2180   10.3110 O   0  0  0  0  0  0  0  0  0  0  0  0
   -1.7840   44.5510   11.9150 O   0  0  0  0  0  0  0  0  0  0  0  0
   -2.2580   44.2520   12.7590 H   0  0  0  0  0  0  0  0  0  0  0  0
  2  1  1  0  0  0  0
  3  8  1  0  0  0  0
  3  2  1  0  0  0  0
  4  5  1  0  0  0  0
  4  2  2  0  0  0  0
  6  7  1  0  0  0  0
  6  3  2  0  0  0  0
  7  4  1  0  0  0  0
  9  8  1  0  0  0  0
 10  1  1  1  0  0  0
 10 14  1  0  0  0  0
 10 11  1  0  0  0  0
 11 13  1  0  0  0  0
 11 12  1  0  0  0  0
 14 16  1  0  0  0  0
 15 14  2  0  0  0  0
 16 17  1  0  0  0  0
M  END
>  <MODEL>
19

>  <REMARK>
 VINA RESULT:    -4.723      3.409      4.115
 INTER + INTRA:          -6.432
 INTER:                  -6.243
 INTRA:                  -0.189
 UNBOUND:                -0.467
  Name = AMQ
  7 active torsions:
  status: ('A' for Active; 'I' for Inactive)
    1  A    between atoms: N_1  and  CA_2
    2  A    between atoms: CA_2  and  C_3
    3  A    between atoms: CA_2  and  C_6
    4  A    between atoms: C_3  and  OXT_5
    5  A    between atoms: C_6  and  C_7
    6  A    between atoms: C_8  and  O_11
    7  A    between atoms: C_9  and  C_10
                            x       y       z     vdW  Elec       q    Type
                         _______ _______ _______ _____ _____    ______ ____

>  <TORSDO>
F 6

$$$$
