AMQ
 OpenBabel09132600393D

 17 17  0  0  1  0  0  0  0  0999 V2000
   -2.0730   47.3310    8.6980 C   0  0  0  0  0  2  0  0  0  0  0  0
   -1.1480   47.8380    7.6250 C   0  0  0  0  0  0  0  0  0  0  0  0
   -0.8830   47.2880    6.3860 C   0  0  0  0  0  0  0  0  0  0  0  0
   -0.3070   48.9340    7.6740 C   0  0  0  0  0  0  0  0  0  0  0  0
   -0.1600   49.9040    8.8000 C   0  0  0  0  0  1  0  0  0  0  0  0
    0.0450   48.0230    5.7460 N   0  0  0  0  0  0  0  0  0  0  0  0
    0.3660   49.0000    6.5460 O   0  0  0  0  0  0  0  0  0  0  0  0
   -1.4580   46.1420    5.8440 O   0  0  0  0  0  0  0  0  0  0  0  0
   -1.7550   46.1060    4.8760 H   0  0  0  0  0  0  0  0  0  0  0  0
   -1.6980   45.9110    9.1580 C   0  0  2  0  0  3  0  0  0  0  0  0
   -2.5490   44.9120    8.5070 N   0  0  0  0  0  0  0  0  0  0  0  0
   -3.3960   44.7590    9.1010 H   0  0  0  0  0  0  0  0  0  0  0  0
   -2.9080   45.3150    7.6110 H   0  0  0  0  0  0  0  0  0  0  0  0
   -1.8580   45.8150   10.6490 C   0  0  0  0  0  0  0  0  0  0  0  0
   -1.3050   44.8770   11.2840 O   0  0  0  0  0  0  0  0  0  0  0  0
   -2.5920   46.7790   11.3340 O   0  0  0  0  0  0  0  0  0  0  0  0
   -2.9870   46.5800   12.2460 H   0  0  0  0  0  0  0  0  0  0  0  0
  2  4  2  0  0  0  0
  2  1  1  0  0  0  0
  3  2  1  0  0  0  0
  4  5  1  0  0  0  0
  6  3  2  0  0  0  0
  6  7  1  0  0  0  0
  7  4  1  0  0  0  0
  8  3  1  0  0  0  0
  9  8  1  0  0  0  0
 10  1  1  6  0  0  0
 10 14  1  0  0  0  0
 11 12  1  0  0  0  0
 11 10  1  0  0  0  0
 13 11  1  0  0  0  0
 14 15  2  0  0  0  0
 14 16  1  0  0  0  0
 16 17  1  0  0  0  0
M  END
>  <MODEL>
10

>  <REMARK>
 VINA RESULT:    -5.025      2.840      3.677
 INTER + INTRA:          -6.814
 INTER:                  -6.482
 INTRA:                  -0.332
 UNBOUND:                -0.467
  Name = AMQ
  7 active torsions:
  status: ('A' for Active; 'I' for Inactive)
    1  A    between atoms: N_1  and  CA_2
    2  A    between atoms: CA_2  and  C_3
    3  A    between atoms: CA_2  and  C_6
    4  A    between atoms: C_3  and  OXT_5
    5  A    between atoms: C_6  and  C_7
    6  A    between atoms: C_8  and  O_11
    7  A    between atoms: C_9  and  C_10
                            x       y       z     vdW  Elec       q    Type
                         _______ _______ _______ _____ _____    ______ ____

>  <TORSDO>
F 6

$$$$
