AMQ
 OpenBabel09132600393D

 17 17  0  0  1  0  0  0  0  0999 V2000
   -2.8840   48.5010   12.3440 C   0  0  0  0  0  2  0  0  0  0  0  0
   -2.8370   47.0730   12.8150 C   0  0  0  0  0  0  0  0  0  0  0  0
   -3.3180   46.5380   13.9940 C   0  0  0  0  0  0  0  0  0  0  0  0
   -2.2380   45.9920   12.1950 C   0  0  0  0  0  0  0  0  0  0  0  0
   -1.5350   45.9880   10.8780 C   0  0  0  0  0  1  0  0  0  0  0  0
   -3.0310   45.2250   14.0540 N   0  0  0  0  0  0  0  0  0  0  0  0
   -2.3850   44.9330   12.9610 O   0  0  0  0  0  0  0  0  0  0  0  0
   -3.9970   47.2190   15.0000 O   0  0  0  0  0  0  0  0  0  0  0  0
   -3.5530   47.9590   15.5320 H   0  0  0  0  0  0  0  0  0  0  0  0
   -1.8810   49.3910   13.1020 C   0  0  2  0  0  3  0  0  0  0  0  0
   -2.5440   50.5840   13.6350 N   0  0  0  0  0  0  0  0  0  0  0  0
   -3.5700   50.5020   13.4540 H   0  0  0  0  0  0  0  0  0  0  0  0
   -2.4440   50.5810   14.6760 H   0  0  0  0  0  0  0  0  0  0  0  0
   -0.7780   49.8010   12.1680 C   0  0  0  0  0  0  0  0  0  0  0  0
   -0.8440   49.5040   10.9450 O   0  0  0  0  0  0  0  0  0  0  0  0
    0.3030   50.5350   12.6470 O   0  0  0  0  0  0  0  0  0  0  0  0
    0.8850   51.0730   12.0160 H   0  0  0  0  0  0  0  0  0  0  0  0
  1  2  1  0  0  0  0
  2  3  1  0  0  0  0
  3  6  2  0  0  0  0
  3  8  1  0  0  0  0
  4  2  2  0  0  0  0
  4  7  1  0  0  0  0
  5  4  1  0  0  0  0
  7  6  1  0  0  0  0
  8  9  1  0  0  0  0
 10  1  1  6  0  0  0
 10 11  1  0  0  0  0
 11 13  1  0  0  0  0
 12 11  1  0  0  0  0
 14 16  1  0  0  0  0
 14 10  1  0  0  0  0
 15 14  2  0  0  0  0
 17 16  1  0  0  0  0
M  END
>  <MODEL>
13

>  <REMARK>
 VINA RESULT:    -4.976      4.354      5.738
 INTER + INTRA:          -6.752
 INTER:                  -6.427
 INTRA:                  -0.325
 UNBOUND:                -0.467
  Name = AMQ
  7 active torsions:
  status: ('A' for Active; 'I' for Inactive)
    1  A    between atoms: N_1  and  CA_2
    2  A    between atoms: CA_2  and  C_3
    3  A    between atoms: CA_2  and  C_6
    4  A    between atoms: C_3  and  OXT_5
    5  A    between atoms: C_6  and  C_7
    6  A    between atoms: C_8  and  O_11
    7  A    between atoms: C_9  and  C_10
                            x       y       z     vdW  Elec       q    Type
                         _______ _______ _______ _____ _____    ______ ____

>  <TORSDO>
F 6

$$$$
