AMQ
 OpenBabel09132600393D

 17 17  0  0  1  0  0  0  0  0999 V2000
   -2.8350   46.3130   10.8210 C   0  0  0  0  0  2  0  0  0  0  0  0
   -1.7850   46.6000    9.7820 C   0  0  0  0  0  0  0  0  0  0  0  0
   -1.4670   45.8700    8.6540 C   0  0  0  0  0  0  0  0  0  0  0  0
   -0.8600   47.6280    9.7680 C   0  0  0  0  0  0  0  0  0  0  0  0
   -0.7240   48.7270   10.7700 C   0  0  0  0  0  1  0  0  0  0  0  0
   -0.4300   46.4420    8.0130 N   0  0  0  0  0  0  0  0  0  0  0  0
   -0.0940   47.4910    8.7080 O   0  0  0  0  0  0  0  0  0  0  0  0
   -2.0910   44.7080    8.2120 O   0  0  0  0  0  0  0  0  0  0  0  0
   -2.0390   43.8440    8.7390 H   0  0  0  0  0  0  0  0  0  0  0  0
   -2.4490   45.1200   11.7150 C   0  0  2  0  0  3  0  0  0  0  0  0
   -3.1010   43.8920   11.2540 N   0  0  0  0  0  0  0  0  0  0  0  0
   -3.5990   43.4570   12.0630 H   0  0  0  0  0  0  0  0  0  0  0  0
   -3.8520   44.1520   10.5740 H   0  0  0  0  0  0  0  0  0  0  0  0
   -2.8600   45.4080   13.1310 C   0  0  0  0  0  0  0  0  0  0  0  0
   -3.8290   44.7880   13.6460 O   0  0  0  0  0  0  0  0  0  0  0  0
   -2.1530   46.3400   13.8860 O   0  0  0  0  0  0  0  0  0  0  0  0
   -1.9570   46.1730   14.8650 H   0  0  0  0  0  0  0  0  0  0  0  0
  2  1  1  0  0  0  0
  3  2  1  0  0  0  0
  4  2  2  0  0  0  0
  4  5  1  0  0  0  0
  6  3  2  0  0  0  0
  6  7  1  0  0  0  0
  7  4  1  0  0  0  0
  8  3  1  0  0  0  0
  8  9  1  0  0  0  0
 10  1  1  6  0  0  0
 10 14  1  0  0  0  0
 11 10  1  0  0  0  0
 11 12  1  0  0  0  0
 13 11  1  0  0  0  0
 14 15  2  0  0  0  0
 14 16  1  0  0  0  0
 16 17  1  0  0  0  0
M  END
>  <MODEL>
15

>  <REMARK>
 VINA RESULT:    -4.871      3.958      4.798
 INTER + INTRA:          -6.620
 INTER:                  -6.247
 INTRA:                  -0.373
 UNBOUND:                -0.467
  Name = AMQ
  7 active torsions:
  status: ('A' for Active; 'I' for Inactive)
    1  A    between atoms: N_1  and  CA_2
    2  A    between atoms: CA_2  and  C_3
    3  A    between atoms: CA_2  and  C_6
    4  A    between atoms: C_3  and  OXT_5
    5  A    between atoms: C_6  and  C_7
    6  A    between atoms: C_8  and  O_11
    7  A    between atoms: C_9  and  C_10
                            x       y       z     vdW  Elec       q    Type
                         _______ _______ _______ _____ _____    ______ ____

>  <TORSDO>
F 6

$$$$
