AMQ
 OpenBabel09132600393D

 17 17  0  0  1  0  0  0  0  0999 V2000
   -2.3430   45.3580   12.0990 C   0  0  0  0  0  2  0  0  0  0  0  0
   -2.7490   46.5110   12.9770 C   0  0  0  0  0  0  0  0  0  0  0  0
   -2.4490   47.8510   12.8330 C   0  0  0  0  0  0  0  0  0  0  0  0
   -3.4590   46.4680   14.1630 C   0  0  0  0  0  0  0  0  0  0  0  0
   -4.0320   45.2580   14.8240 C   0  0  0  0  0  1  0  0  0  0  0  0
   -2.9630   48.5500   13.8630 N   0  0  0  0  0  0  0  0  0  0  0  0
   -3.5600   47.6900   14.6380 O   0  0  0  0  0  0  0  0  0  0  0  0
   -1.7220   48.4350   11.8010 O   0  0  0  0  0  0  0  0  0  0  0  0
   -2.1730   48.7680   10.9570 H   0  0  0  0  0  0  0  0  0  0  0  0
   -3.4920   44.9000   11.1830 C   0  0  2  0  0  3  0  0  0  0  0  0
   -3.7000   43.4540   11.2930 N   0  0  0  0  0  0  0  0  0  0  0  0
   -3.9360   43.0800   10.3470 H   0  0  0  0  0  0  0  0  0  0  0  0
   -2.7890   43.0080   11.5480 H   0  0  0  0  0  0  0  0  0  0  0  0
   -3.1640   45.2560    9.7610 C   0  0  0  0  0  0  0  0  0  0  0  0
   -3.4200   44.4430    8.8310 O   0  0  0  0  0  0  0  0  0  0  0  0
   -2.6040   46.4950    9.4640 O   0  0  0  0  0  0  0  0  0  0  0  0
   -1.9740   46.6050    8.6790 H   0  0  0  0  0  0  0  0  0  0  0  0
  1  2  1  0  0  0  0
  2  4  2  0  0  0  0
  3  2  1  0  0  0  0
  3  6  2  0  0  0  0
  4  7  1  0  0  0  0
  4  5  1  0  0  0  0
  6  7  1  0  0  0  0
  8  3  1  0  0  0  0
  9  8  1  0  0  0  0
 10 11  1  0  0  0  0
 10  1  1  1  0  0  0
 11 13  1  0  0  0  0
 12 11  1  0  0  0  0
 14 10  1  0  0  0  0
 15 14  2  0  0  0  0
 16 14  1  0  0  0  0
 17 16  1  0  0  0  0
M  END
>  <MODEL>
4

>  <REMARK>
 VINA RESULT:    -5.386      4.604      6.653
 INTER + INTRA:          -7.269
 INTER:                  -6.813
 INTRA:                  -0.456
 UNBOUND:                -0.467
  Name = AMQ
  7 active torsions:
  status: ('A' for Active; 'I' for Inactive)
    1  A    between atoms: N_1  and  CA_2
    2  A    between atoms: CA_2  and  C_3
    3  A    between atoms: CA_2  and  C_6
    4  A    between atoms: C_3  and  OXT_5
    5  A    between atoms: C_6  and  C_7
    6  A    between atoms: C_8  and  O_11
    7  A    between atoms: C_9  and  C_10
                            x       y       z     vdW  Elec       q    Type
                         _______ _______ _______ _____ _____    ______ ____

>  <TORSDO>
F 6

$$$$
