AMQ
 OpenBabel09132600393D

 17 17  0  0  1  0  0  0  0  0999 V2000
   -2.3160   47.4730   11.3050 C   0  0  0  0  0  2  0  0  0  0  0  0
   -2.7910   46.0610   11.0940 C   0  0  0  0  0  0  0  0  0  0  0  0
   -2.6820   44.9790   11.9440 C   0  0  0  0  0  0  0  0  0  0  0  0
   -3.3860   45.5230    9.9670 C   0  0  0  0  0  0  0  0  0  0  0  0
   -3.7370   46.2420    8.7070 C   0  0  0  0  0  1  0  0  0  0  0  0
   -3.1910   43.8800   11.3570 N   0  0  0  0  0  0  0  0  0  0  0  0
   -3.6030   44.2440   10.1760 O   0  0  0  0  0  0  0  0  0  0  0  0
   -2.1280   44.9770   13.2210 O   0  0  0  0  0  0  0  0  0  0  0  0
   -1.1640   45.2440   13.3810 H   0  0  0  0  0  0  0  0  0  0  0  0
   -3.2570   48.2640   12.2320 C   0  0  2  0  0  3  0  0  0  0  0  0
   -3.6570   49.5290   11.6110 N   0  0  0  0  0  0  0  0  0  0  0  0
   -2.7960   50.0250   11.2840 H   0  0  0  0  0  0  0  0  0  0  0  0
   -4.2000   49.3140   10.7430 H   0  0  0  0  0  0  0  0  0  0  0  0
   -2.5550   48.5410   13.5320 C   0  0  0  0  0  0  0  0  0  0  0  0
   -2.5200   49.7140   13.9940 O   0  0  0  0  0  0  0  0  0  0  0  0
   -1.9680   47.4980   14.2420 O   0  0  0  0  0  0  0  0  0  0  0  0
   -1.3450   47.6840   15.0190 H   0  0  0  0  0  0  0  0  0  0  0  0
  2  1  1  0  0  0  0
  2  3  1  0  0  0  0
  3  8  1  0  0  0  0
  4  7  1  0  0  0  0
  4  2  2  0  0  0  0
  5  4  1  0  0  0  0
  6  3  2  0  0  0  0
  7  6  1  0  0  0  0
  8  9  1  0  0  0  0
 10  1  1  6  0  0  0
 10 14  1  0  0  0  0
 11 10  1  0  0  0  0
 12 11  1  0  0  0  0
 13 11  1  0  0  0  0
 14 15  2  0  0  0  0
 14 16  1  0  0  0  0
 16 17  1  0  0  0  0
M  END
>  <MODEL>
7

>  <REMARK>
 VINA RESULT:    -5.132      4.419      5.065
 INTER + INTRA:          -6.949
 INTER:                  -6.478
 INTRA:                  -0.471
 UNBOUND:                -0.467
  Name = AMQ
  7 active torsions:
  status: ('A' for Active; 'I' for Inactive)
    1  A    between atoms: N_1  and  CA_2
    2  A    between atoms: CA_2  and  C_3
    3  A    between atoms: CA_2  and  C_6
    4  A    between atoms: C_3  and  OXT_5
    5  A    between atoms: C_6  and  C_7
    6  A    between atoms: C_8  and  O_11
    7  A    between atoms: C_9  and  C_10
                            x       y       z     vdW  Elec       q    Type
                         _______ _______ _______ _____ _____    ______ ____

>  <TORSDO>
F 6

$$$$
