AMQ
 OpenBabel09132600393D

 17 17  0  0  1  0  0  0  0  0999 V2000
   -3.1870   47.3610   12.4950 C   0  0  0  0  0  2  0  0  0  0  0  0
   -2.0910   48.1960   11.8920 C   0  0  0  0  0  0  0  0  0  0  0  0
   -1.3260   47.9350   10.7720 C   0  0  0  0  0  0  0  0  0  0  0  0
   -1.5650   49.3830   12.3680 C   0  0  0  0  0  0  0  0  0  0  0  0
   -2.0030   50.1380   13.5800 C   0  0  0  0  0  1  0  0  0  0  0  0
   -0.4170   48.9130   10.5980 N   0  0  0  0  0  0  0  0  0  0  0  0
   -0.5900   49.7620   11.5710 O   0  0  0  0  0  0  0  0  0  0  0  0
   -1.4360   46.8340    9.9280 O   0  0  0  0  0  0  0  0  0  0  0  0
   -1.2210   45.8970   10.2480 H   0  0  0  0  0  0  0  0  0  0  0  0
   -2.6320   46.2820   13.4430 C   0  0  2  0  0  3  0  0  0  0  0  0
   -2.1790   45.1110   12.6880 N   0  0  0  0  0  0  0  0  0  0  0  0
   -1.4150   45.4090   12.0410 H   0  0  0  0  0  0  0  0  0  0  0  0
   -1.7320   44.4400   13.3550 H   0  0  0  0  0  0  0  0  0  0  0  0
   -3.7060   45.8730   14.4110 C   0  0  0  0  0  0  0  0  0  0  0  0
   -4.5960   46.6980   14.7530 O   0  0  0  0  0  0  0  0  0  0  0  0
   -3.7380   44.5730   14.9080 O   0  0  0  0  0  0  0  0  0  0  0  0
   -4.0350   44.3880   15.8580 H   0  0  0  0  0  0  0  0  0  0  0  0
  2  4  2  0  0  0  0
  2  1  1  0  0  0  0
  3  2  1  0  0  0  0
  4  5  1  0  0  0  0
  6  3  2  0  0  0  0
  6  7  1  0  0  0  0
  7  4  1  0  0  0  0
  8  9  1  0  0  0  0
  8  3  1  0  0  0  0
 10  1  1  6  0  0  0
 10 14  1  0  0  0  0
 11 13  1  0  0  0  0
 11 10  1  0  0  0  0
 12 11  1  0  0  0  0
 14 15  2  0  0  0  0
 14 16  1  0  0  0  0
 16 17  1  0  0  0  0
M  END
>  <MODEL>
6

>  <REMARK>
 VINA RESULT:    -5.143      4.319      5.813
 INTER + INTRA:          -6.963
 INTER:                  -6.629
 INTRA:                  -0.334
 UNBOUND:                -0.467
  Name = AMQ
  7 active torsions:
  status: ('A' for Active; 'I' for Inactive)
    1  A    between atoms: N_1  and  CA_2
    2  A    between atoms: CA_2  and  C_3
    3  A    between atoms: CA_2  and  C_6
    4  A    between atoms: C_3  and  OXT_5
    5  A    between atoms: C_6  and  C_7
    6  A    between atoms: C_8  and  O_11
    7  A    between atoms: C_9  and  C_10
                            x       y       z     vdW  Elec       q    Type
                         _______ _______ _______ _____ _____    ______ ____

>  <TORSDO>
F 6

$$$$
