AMQ
 OpenBabel09132600393D

 17 17  0  0  1  0  0  0  0  0999 V2000
   -3.1110   47.0350   11.4240 C   0  0  0  0  0  2  0  0  0  0  0  0
   -2.4160   47.9550   12.3900 C   0  0  0  0  0  0  0  0  0  0  0  0
   -2.6300   48.1010   13.7470 C   0  0  0  0  0  0  0  0  0  0  0  0
   -1.4530   48.9080   12.1150 C   0  0  0  0  0  0  0  0  0  0  0  0
   -0.8420   49.2100   10.7860 C   0  0  0  0  0  1  0  0  0  0  0  0
   -1.8330   49.0690   14.2360 N   0  0  0  0  0  0  0  0  0  0  0  0
   -1.1430   49.5280   13.2320 O   0  0  0  0  0  0  0  0  0  0  0  0
   -3.5300   47.3830   14.5280 O   0  0  0  0  0  0  0  0  0  0  0  0
   -4.5310   47.4700   14.3990 H   0  0  0  0  0  0  0  0  0  0  0  0
   -2.3890   45.6810   11.2980 C   0  0  2  0  0  3  0  0  0  0  0  0
   -2.0900   45.3800    9.8950 N   0  0  0  0  0  0  0  0  0  0  0  0
   -2.4590   44.4270    9.6750 H   0  0  0  0  0  0  0  0  0  0  0  0
   -2.6370   46.0360    9.2920 H   0  0  0  0  0  0  0  0  0  0  0  0
   -3.2600   44.6000   11.8710 C   0  0  0  0  0  0  0  0  0  0  0  0
   -3.4500   43.5330   11.2260 O   0  0  0  0  0  0  0  0  0  0  0  0
   -3.8360   44.7620   13.1280 O   0  0  0  0  0  0  0  0  0  0  0  0
   -4.5870   44.1570   13.4370 H   0  0  0  0  0  0  0  0  0  0  0  0
  1  2  1  0  0  0  0
  2  3  1  0  0  0  0
  3  6  2  0  0  0  0
  3  8  1  0  0  0  0
  4  2  2  0  0  0  0
  4  7  1  0  0  0  0
  5  4  1  0  0  0  0
  7  6  1  0  0  0  0
  9  8  1  0  0  0  0
 10  1  1  6  0  0  0
 10 14  1  0  0  0  0
 11 10  1  0  0  0  0
 12 11  1  0  0  0  0
 13 11  1  0  0  0  0
 14 16  1  0  0  0  0
 15 14  2  0  0  0  0
 16 17  1  0  0  0  0
M  END
>  <MODEL>
12

>  <REMARK>
 VINA RESULT:    -4.983      4.303      6.533
 INTER + INTRA:          -6.761
 INTER:                  -6.237
 INTRA:                  -0.524
 UNBOUND:                -0.467
  Name = AMQ
  7 active torsions:
  status: ('A' for Active; 'I' for Inactive)
    1  A    between atoms: N_1  and  CA_2
    2  A    between atoms: CA_2  and  C_3
    3  A    between atoms: CA_2  and  C_6
    4  A    between atoms: C_3  and  OXT_5
    5  A    between atoms: C_6  and  C_7
    6  A    between atoms: C_8  and  O_11
    7  A    between atoms: C_9  and  C_10
                            x       y       z     vdW  Elec       q    Type
                         _______ _______ _______ _____ _____    ______ ____

>  <TORSDO>
F 6

$$$$
