PHE
 OpenBabel09132600403D

 15 15  0  0  1  0  0  0  0  0999 V2000
   29.3130   -5.5870   12.7780 C   0  0  2  0  0  3  0  0  0  0  0  0
   29.4970   -4.2740   13.4020 N   0  0  0  0  0  0  0  0  0  0  0  0
   29.2750   -4.3360   14.4230 H   0  0  0  0  0  0  0  0  0  0  0  0
   28.8200   -3.6010   12.9740 H   0  0  0  0  0  0  0  0  0  0  0  0
   29.9500   -5.6250   11.4140 C   0  0  0  0  0  0  0  0  0  0  0  0
   29.2880   -6.0060   10.4110 O   0  0  0  0  0  0  0  0  0  0  0  0
   31.2780   -5.2390   11.2610 O   0  0  0  0  0  0  0  0  0  0  0  0
   32.0250   -5.7600   11.7020 H   0  0  0  0  0  0  0  0  0  0  0  0
   27.8180   -5.9400   12.6840 C   0  0  0  0  0  2  0  0  0  0  0  0
   27.4470   -7.0250   13.6630 C   0  0  0  0  0  0  0  0  0  0  0  0
   26.1250   -7.1390   14.1260 C   0  0  0  0  0  3  0  0  0  0  0  0
   28.4070   -7.9610   14.0850 C   0  0  0  0  0  3  0  0  0  0  0  0
   25.7750   -8.1620   15.0130 C   0  0  0  0  0  3  0  0  0  0  0  0
   28.0520   -8.9820   14.9720 C   0  0  0  0  0  3  0  0  0  0  0  0
   26.7380   -9.0820   15.4360 C   0  0  0  0  0  3  0  0  0  0  0  0
  1  9  1  6  0  0  0
  1  2  1  0  0  0  0
  2  3  1  0  0  0  0
  4  2  1  0  0  0  0
  5  1  1  0  0  0  0
  6  5  2  0  0  0  0
  7  5  1  0  0  0  0
  7  8  1  0  0  0  0
  9 10  1  0  0  0  0
 10 12  2  0  0  0  0
 10 11  1  0  0  0  0
 11 13  2  0  0  0  0
 12 14  1  0  0  0  0
 13 15  1  0  0  0  0
 14 15  2  0  0  0  0
M  END
>  <MODEL>
20

>  <REMARK>
 VINA RESULT:    -4.236     12.352     13.363
 INTER + INTRA:          -5.409
 INTER:                  -5.214
 INTRA:                  -0.195
 UNBOUND:                -0.183
  Name = PHE
  5 active torsions:
  status: ('A' for Active; 'I' for Inactive)
    1  A    between atoms: N_1  and  CA_2
    2  A    between atoms: CA_2  and  C_3
    3  A    between atoms: CA_2  and  CB_5
    4  A    between atoms: C_3  and  OXT_12
    5  A    between atoms: CB_5  and  CG_6
                            x       y       z     vdW  Elec       q    Type
                         _______ _______ _______ _____ _____    ______ ____

>  <TORSDO>
F 5

$$$$
