PHE
 OpenBabel09132600403D

 15 15  0  0  1  0  0  0  0  0999 V2000
   38.8490    1.9540    5.1710 C   0  0  2  0  0  3  0  0  0  0  0  0
   39.9280    2.1010    4.1910 N   0  0  0  0  0  0  0  0  0  0  0  0
   40.2690    3.0910    4.1890 H   0  0  0  0  0  0  0  0  0  0  0  0
   39.5470    1.8990    3.2370 H   0  0  0  0  0  0  0  0  0  0  0  0
   37.5780    2.5840    4.6650 C   0  0  0  0  0  0  0  0  0  0  0  0
   37.5920    3.7480    4.1800 O   0  0  0  0  0  0  0  0  0  0  0  0
   36.3810    1.8770    4.7350 O   0  0  0  0  0  0  0  0  0  0  0  0
   35.7710    1.8080    3.9300 H   0  0  0  0  0  0  0  0  0  0  0  0
   39.2540    2.5710    6.5220 C   0  0  0  0  0  2  0  0  0  0  0  0
   38.3860    2.0570    7.6420 C   0  0  0  0  0  0  0  0  0  0  0  0
   38.1710    0.6770    7.7940 C   0  0  0  0  0  3  0  0  0  0  0  0
   37.8220    2.9480    8.5710 C   0  0  0  0  0  3  0  0  0  0  0  0
   37.3880    0.1970    8.8490 C   0  0  0  0  0  3  0  0  0  0  0  0
   37.0390    2.4640    9.6250 C   0  0  0  0  0  3  0  0  0  0  0  0
   36.8220    1.0910    9.7630 C   0  0  0  0  0  3  0  0  0  0  0  0
  1  9  1  1  0  0  0
  2  1  1  0  0  0  0
  3  2  1  0  0  0  0
  4  2  1  0  0  0  0
  5  7  1  0  0  0  0
  5  1  1  0  0  0  0
  6  5  2  0  0  0  0
  8  7  1  0  0  0  0
  9 10  1  0  0  0  0
 10 11  2  0  0  0  0
 10 12  1  0  0  0  0
 11 13  1  0  0  0  0
 12 14  2  0  0  0  0
 13 15  2  0  0  0  0
 14 15  1  0  0  0  0
M  END
>  <MODEL>
10

>  <REMARK>
 VINA RESULT:    -4.644      2.751      3.432
 INTER + INTRA:          -5.913
 INTER:                  -5.671
 INTRA:                  -0.241
 UNBOUND:                -0.183
  Name = PHE
  5 active torsions:
  status: ('A' for Active; 'I' for Inactive)
    1  A    between atoms: N_1  and  CA_2
    2  A    between atoms: CA_2  and  C_3
    3  A    between atoms: CA_2  and  CB_5
    4  A    between atoms: C_3  and  OXT_12
    5  A    between atoms: CB_5  and  CG_6
                            x       y       z     vdW  Elec       q    Type
                         _______ _______ _______ _____ _____    ______ ____

>  <TORSDO>
F 5

$$$$
