PHE
 OpenBabel09132600403D

 15 15  0  0  1  0  0  0  0  0999 V2000
   28.1630   -5.6290   12.2140 C   0  0  2  0  0  3  0  0  0  0  0  0
   26.9490   -5.3720   11.4360 N   0  0  0  0  0  0  0  0  0  0  0  0
   26.1190   -5.3620   12.0740 H   0  0  0  0  0  0  0  0  0  0  0  0
   26.8130   -6.1560   10.7560 H   0  0  0  0  0  0  0  0  0  0  0  0
   28.5710   -4.4040   12.9890 C   0  0  0  0  0  0  0  0  0  0  0  0
   27.7850   -3.4230   13.0930 O   0  0  0  0  0  0  0  0  0  0  0  0
   29.8250   -4.3530   13.5910 O   0  0  0  0  0  0  0  0  0  0  0  0
   30.6230   -3.9720   13.0980 H   0  0  0  0  0  0  0  0  0  0  0  0
   29.3090   -6.0910   11.2960 C   0  0  0  0  0  2  0  0  0  0  0  0
   29.4140   -7.5950   11.2640 C   0  0  0  0  0  0  0  0  0  0  0  0
   30.1770   -8.2710   12.2320 C   0  0  0  0  0  3  0  0  0  0  0  0
   28.7140   -8.3370   10.2980 C   0  0  0  0  0  3  0  0  0  0  0  0
   30.2530   -9.6680   12.2190 C   0  0  0  0  0  3  0  0  0  0  0  0
   28.7920   -9.7340   10.2900 C   0  0  0  0  0  3  0  0  0  0  0  0
   29.5620  -10.3970   11.2480 C   0  0  0  0  0  3  0  0  0  0  0  0
  1  9  1  6  0  0  0
  1  5  1  0  0  0  0
  2  3  1  0  0  0  0
  2  1  1  0  0  0  0
  4  2  1  0  0  0  0
  5  6  2  0  0  0  0
  5  7  1  0  0  0  0
  8  7  1  0  0  0  0
 10  9  1  0  0  0  0
 10 11  1  0  0  0  0
 12 10  2  0  0  0  0
 13 11  2  0  0  0  0
 14 12  1  0  0  0  0
 14 15  2  0  0  0  0
 15 13  1  0  0  0  0
M  END
>  <MODEL>
17

>  <REMARK>
 VINA RESULT:    -4.390     11.461     12.660
 INTER + INTRA:          -5.599
 INTER:                  -5.435
 INTRA:                  -0.165
 UNBOUND:                -0.183
  Name = PHE
  5 active torsions:
  status: ('A' for Active; 'I' for Inactive)
    1  A    between atoms: N_1  and  CA_2
    2  A    between atoms: CA_2  and  C_3
    3  A    between atoms: CA_2  and  CB_5
    4  A    between atoms: C_3  and  OXT_12
    5  A    between atoms: CB_5  and  CG_6
                            x       y       z     vdW  Elec       q    Type
                         _______ _______ _______ _____ _____    ______ ____

>  <TORSDO>
F 5

$$$$
