PHE
 OpenBabel09132600403D

 15 15  0  0  1  0  0  0  0  0999 V2000
   37.0910    1.3100   10.3390 C   0  0  2  0  0  3  0  0  0  0  0  0
   37.3560    0.7630   11.6720 N   0  0  0  0  0  0  0  0  0  0  0  0
   36.4520    0.5040   12.1320 H   0  0  0  0  0  0  0  0  0  0  0  0
   37.8050    1.5050   12.2580 H   0  0  0  0  0  0  0  0  0  0  0  0
   35.6170    1.5480   10.1430 C   0  0  0  0  0  0  0  0  0  0  0  0
   34.8180    0.5750   10.0650 O   0  0  0  0  0  0  0  0  0  0  0  0
   35.1340    2.8490   10.0440 O   0  0  0  0  0  0  0  0  0  0  0  0
   35.5410    3.5060    9.3900 H   0  0  0  0  0  0  0  0  0  0  0  0
   37.6350    0.3710    9.2480 C   0  0  0  0  0  2  0  0  0  0  0  0
   37.6320    1.0400    7.8970 C   0  0  0  0  0  0  0  0  0  0  0  0
   38.5570    2.0580    7.6100 C   0  0  0  0  0  3  0  0  0  0  0  0
   36.7380    0.6210    6.8970 C   0  0  0  0  0  3  0  0  0  0  0  0
   38.5730    2.6600    6.3480 C   0  0  0  0  0  3  0  0  0  0  0  0
   36.7580    1.2260    5.6360 C   0  0  0  0  0  3  0  0  0  0  0  0
   37.6730    2.2450    5.3620 C   0  0  0  0  0  3  0  0  0  0  0  0
  1  9  1  6  0  0  0
  1  2  1  0  0  0  0
  2  3  1  0  0  0  0
  2  4  1  0  0  0  0
  5  1  1  0  0  0  0
  6  5  2  0  0  0  0
  7  5  1  0  0  0  0
  8  7  1  0  0  0  0
 10  9  1  0  0  0  0
 11 10  1  0  0  0  0
 12 10  2  0  0  0  0
 13 11  2  0  0  0  0
 14 12  1  0  0  0  0
 15 14  2  0  0  0  0
 15 13  1  0  0  0  0
M  END
>  <MODEL>
8

>  <REMARK>
 VINA RESULT:    -4.711      3.496      4.486
 INTER + INTRA:          -5.996
 INTER:                  -5.796
 INTRA:                  -0.199
 UNBOUND:                -0.183
  Name = PHE
  5 active torsions:
  status: ('A' for Active; 'I' for Inactive)
    1  A    between atoms: N_1  and  CA_2
    2  A    between atoms: CA_2  and  C_3
    3  A    between atoms: CA_2  and  CB_5
    4  A    between atoms: C_3  and  OXT_12
    5  A    between atoms: CB_5  and  CG_6
                            x       y       z     vdW  Elec       q    Type
                         _______ _______ _______ _____ _____    ______ ____

>  <TORSDO>
F 5

$$$$
