PHE
 OpenBabel09132600403D

 15 15  0  0  1  0  0  0  0  0999 V2000
   37.2070    0.9750    8.2270 C   0  0  2  0  0  3  0  0  0  0  0  0
   36.7100   -0.0280    9.1740 N   0  0  0  0  0  0  0  0  0  0  0  0
   37.5070   -0.4000    9.7410 H   0  0  0  0  0  0  0  0  0  0  0  0
   36.3070   -0.8290    8.6340 H   0  0  0  0  0  0  0  0  0  0  0  0
   37.4210    2.2980    8.9130 C   0  0  0  0  0  0  0  0  0  0  0  0
   36.9090    2.5210   10.0440 O   0  0  0  0  0  0  0  0  0  0  0  0
   38.1850    3.2820    8.2940 O   0  0  0  0  0  0  0  0  0  0  0  0
   39.0530    3.6030    8.7070 H   0  0  0  0  0  0  0  0  0  0  0  0
   36.2350    1.1330    7.0440 C   0  0  0  0  0  2  0  0  0  0  0  0
   36.4830    0.0860    5.9870 C   0  0  0  0  0  0  0  0  0  0  0  0
   35.6010   -0.9980    5.8450 C   0  0  0  0  0  3  0  0  0  0  0  0
   37.5700    0.2100    5.1050 C   0  0  0  0  0  3  0  0  0  0  0  0
   35.8150   -1.9540    4.8470 C   0  0  0  0  0  3  0  0  0  0  0  0
   37.7810   -0.7490    4.1080 C   0  0  0  0  0  3  0  0  0  0  0  0
   36.9050   -1.8300    3.9810 C   0  0  0  0  0  3  0  0  0  0  0  0
  1  9  1  6  0  0  0
  1  5  1  0  0  0  0
  1  2  1  0  0  0  0
  2  3  1  0  0  0  0
  4  2  1  0  0  0  0
  5  6  2  0  0  0  0
  7  8  1  0  0  0  0
  7  5  1  0  0  0  0
 10  9  1  0  0  0  0
 11 10  1  0  0  0  0
 12 10  2  0  0  0  0
 13 11  2  0  0  0  0
 14 12  1  0  0  0  0
 15 14  2  0  0  0  0
 15 13  1  0  0  0  0
M  END
>  <MODEL>
11

>  <REMARK>
 VINA RESULT:    -4.621      3.063      5.069
 INTER + INTRA:          -5.884
 INTER:                  -5.734
 INTRA:                  -0.151
 UNBOUND:                -0.183
  Name = PHE
  5 active torsions:
  status: ('A' for Active; 'I' for Inactive)
    1  A    between atoms: N_1  and  CA_2
    2  A    between atoms: CA_2  and  C_3
    3  A    between atoms: CA_2  and  CB_5
    4  A    between atoms: C_3  and  OXT_12
    5  A    between atoms: CB_5  and  CG_6
                            x       y       z     vdW  Elec       q    Type
                         _______ _______ _______ _____ _____    ______ ____

>  <TORSDO>
F 5

$$$$
