PHE
 OpenBabel09132600403D

 15 15  0  0  1  0  0  0  0  0999 V2000
   28.5700   -4.9490   12.7860 C   0  0  2  0  0  3  0  0  0  0  0  0
   29.7390   -4.3370   13.4230 N   0  0  0  0  0  0  0  0  0  0  0  0
   30.6040   -4.8560   13.1420 H   0  0  0  0  0  0  0  0  0  0  0  0
   29.6420   -4.4270   14.4610 H   0  0  0  0  0  0  0  0  0  0  0  0
   27.3730   -4.0410   12.8830 C   0  0  0  0  0  0  0  0  0  0  0  0
   26.2090   -4.5230   12.9480 O   0  0  0  0  0  0  0  0  0  0  0  0
   27.5510   -2.6610   12.8980 O   0  0  0  0  0  0  0  0  0  0  0  0
   27.1580   -2.0780   12.1700 H   0  0  0  0  0  0  0  0  0  0  0  0
   28.2610   -6.3170   13.4190 C   0  0  0  0  0  2  0  0  0  0  0  0
   28.6580   -7.4470   12.5040 C   0  0  0  0  0  0  0  0  0  0  0  0
   28.2920   -7.4210   11.1470 C   0  0  0  0  0  3  0  0  0  0  0  0
   29.4370   -8.5130   12.9860 C   0  0  0  0  0  3  0  0  0  0  0  0
   28.6830   -8.4560   10.2910 C   0  0  0  0  0  3  0  0  0  0  0  0
   29.8260   -9.5460   12.1260 C   0  0  0  0  0  3  0  0  0  0  0  0
   29.4490   -9.5170   10.7810 C   0  0  0  0  0  3  0  0  0  0  0  0
  1  5  1  0  0  0  0
  1  9  1  1  0  0  0
  1  2  1  0  0  0  0
  2  4  1  0  0  0  0
  3  2  1  0  0  0  0
  5  7  1  0  0  0  0
  5  6  2  0  0  0  0
  8  7  1  0  0  0  0
 10 12  1  0  0  0  0
 10  9  1  0  0  0  0
 11 10  2  0  0  0  0
 13 15  2  0  0  0  0
 13 11  1  0  0  0  0
 14 12  2  0  0  0  0
 15 14  1  0  0  0  0
M  END
>  <MODEL>
12

>  <REMARK>
 VINA RESULT:    -4.572     11.700     12.841
 INTER + INTRA:          -5.824
 INTER:                  -5.622
 INTRA:                  -0.202
 UNBOUND:                -0.183
  Name = PHE
  5 active torsions:
  status: ('A' for Active; 'I' for Inactive)
    1  A    between atoms: N_1  and  CA_2
    2  A    between atoms: CA_2  and  C_3
    3  A    between atoms: CA_2  and  CB_5
    4  A    between atoms: C_3  and  OXT_12
    5  A    between atoms: CB_5  and  CG_6
                            x       y       z     vdW  Elec       q    Type
                         _______ _______ _______ _____ _____    ______ ____

>  <TORSDO>
F 5

$$$$
