PHE
 OpenBabel09132600403D

 15 15  0  0  1  0  0  0  0  0999 V2000
   37.2440    0.9510    8.9780 C   0  0  2  0  0  3  0  0  0  0  0  0
   37.1860   -0.5110    8.8860 N   0  0  0  0  0  0  0  0  0  0  0  0
   37.0420   -0.9170    9.8400 H   0  0  0  0  0  0  0  0  0  0  0  0
   38.1050   -0.8620    8.5300 H   0  0  0  0  0  0  0  0  0  0  0  0
   36.6300    1.4300   10.2660 C   0  0  0  0  0  0  0  0  0  0  0  0
   35.8210    2.3970   10.2670 O   0  0  0  0  0  0  0  0  0  0  0  0
   36.9590    0.8020   11.4640 O   0  0  0  0  0  0  0  0  0  0  0  0
   36.3060    0.1760   11.9190 H   0  0  0  0  0  0  0  0  0  0  0  0
   36.5410    1.5990    7.7720 C   0  0  0  0  0  2  0  0  0  0  0  0
   37.5110    1.8620    6.6480 C   0  0  0  0  0  0  0  0  0  0  0  0
   37.2410    1.3840    5.3540 C   0  0  0  0  0  3  0  0  0  0  0  0
   38.6680    2.6270    6.8710 C   0  0  0  0  0  3  0  0  0  0  0  0
   38.1260    1.6510    4.3050 C   0  0  0  0  0  3  0  0  0  0  0  0
   39.5510    2.8920    5.8190 C   0  0  0  0  0  3  0  0  0  0  0  0
   39.2810    2.4030    4.5380 C   0  0  0  0  0  3  0  0  0  0  0  0
  1  9  1  6  0  0  0
  1  5  1  0  0  0  0
  2  1  1  0  0  0  0
  2  3  1  0  0  0  0
  4  2  1  0  0  0  0
  5  6  2  0  0  0  0
  5  7  1  0  0  0  0
  7  8  1  0  0  0  0
 10 12  1  0  0  0  0
 10  9  1  0  0  0  0
 11 10  2  0  0  0  0
 13 15  2  0  0  0  0
 13 11  1  0  0  0  0
 14 12  2  0  0  0  0
 15 14  1  0  0  0  0
M  END
>  <MODEL>
4

>  <REMARK>
 VINA RESULT:    -4.956      3.456      4.828
 INTER + INTRA:          -6.298
 INTER:                  -6.119
 INTRA:                  -0.179
 UNBOUND:                -0.183
  Name = PHE
  5 active torsions:
  status: ('A' for Active; 'I' for Inactive)
    1  A    between atoms: N_1  and  CA_2
    2  A    between atoms: CA_2  and  C_3
    3  A    between atoms: CA_2  and  CB_5
    4  A    between atoms: C_3  and  OXT_12
    5  A    between atoms: CB_5  and  CG_6
                            x       y       z     vdW  Elec       q    Type
                         _______ _______ _______ _____ _____    ______ ____

>  <TORSDO>
F 5

$$$$
