PHE
 OpenBabel09132600403D

 15 15  0  0  1  0  0  0  0  0999 V2000
   29.2610   -5.9290   12.0530 C   0  0  2  0  0  3  0  0  0  0  0  0
   30.6980   -5.9280   11.7650 N   0  0  0  0  0  0  0  0  0  0  0  0
   31.0930   -6.8810   11.9440 H   0  0  0  0  0  0  0  0  0  0  0  0
   31.1720   -5.2640   12.4210 H   0  0  0  0  0  0  0  0  0  0  0  0
   28.9000   -4.7950   12.9740 C   0  0  0  0  0  0  0  0  0  0  0  0
   27.6960   -4.4480   13.1180 O   0  0  0  0  0  0  0  0  0  0  0  0
   29.9010   -4.1240   13.6700 O   0  0  0  0  0  0  0  0  0  0  0  0
   30.8670   -4.4220   13.6070 H   0  0  0  0  0  0  0  0  0  0  0  0
   28.8300   -7.2750   12.6610 C   0  0  0  0  0  2  0  0  0  0  0  0
   29.2520   -8.4320   11.7900 C   0  0  0  0  0  0  0  0  0  0  0  0
   30.0740   -9.4460   12.3100 C   0  0  0  0  0  3  0  0  0  0  0  0
   28.7910   -8.5310   10.4660 C   0  0  0  0  0  3  0  0  0  0  0  0
   30.4430  -10.5330   11.5110 C   0  0  0  0  0  3  0  0  0  0  0  0
   29.1620   -9.6190    9.6710 C   0  0  0  0  0  3  0  0  0  0  0  0
   29.9880  -10.6180   10.1920 C   0  0  0  0  0  3  0  0  0  0  0  0
  1  9  1  1  0  0  0
  1  5  1  0  0  0  0
  2  3  1  0  0  0  0
  2  1  1  0  0  0  0
  2  4  1  0  0  0  0
  5  6  2  0  0  0  0
  5  7  1  0  0  0  0
  8  7  1  0  0  0  0
 10 11  1  0  0  0  0
 10  9  1  0  0  0  0
 12 10  2  0  0  0  0
 13 11  2  0  0  0  0
 14 15  2  0  0  0  0
 14 12  1  0  0  0  0
 15 13  1  0  0  0  0
M  END
>  <MODEL>
14

>  <REMARK>
 VINA RESULT:    -4.514     11.516     12.801
 INTER + INTRA:          -5.753
 INTER:                  -5.638
 INTRA:                  -0.115
 UNBOUND:                -0.183
  Name = PHE
  5 active torsions:
  status: ('A' for Active; 'I' for Inactive)
    1  A    between atoms: N_1  and  CA_2
    2  A    between atoms: CA_2  and  C_3
    3  A    between atoms: CA_2  and  CB_5
    4  A    between atoms: C_3  and  OXT_12
    5  A    between atoms: CB_5  and  CG_6
                            x       y       z     vdW  Elec       q    Type
                         _______ _______ _______ _____ _____    ______ ____

>  <TORSDO>
F 5

$$$$
