PHE
 OpenBabel09132600403D

 15 15  0  0  1  0  0  0  0  0999 V2000
   35.5720   -0.6240    5.6630 C   0  0  2  0  0  3  0  0  0  0  0  0
   35.4650   -2.0590    5.9400 N   0  0  0  0  0  0  0  0  0  0  0  0
   35.6120   -2.5990    5.0560 H   0  0  0  0  0  0  0  0  0  0  0  0
   34.4950   -2.2650    6.2770 H   0  0  0  0  0  0  0  0  0  0  0  0
   35.1110   -0.3140    4.2640 C   0  0  0  0  0  0  0  0  0  0  0  0
   35.0280   -1.2300    3.4010 O   0  0  0  0  0  0  0  0  0  0  0  0
   34.7760    0.9920    3.9200 O   0  0  0  0  0  0  0  0  0  0  0  0
   35.4810    1.6400    3.5910 H   0  0  0  0  0  0  0  0  0  0  0  0
   37.0160   -0.1360    5.8740 C   0  0  0  0  0  2  0  0  0  0  0  0
   37.1060    0.8330    7.0250 C   0  0  0  0  0  0  0  0  0  0  0  0
   36.2900    0.6640    8.1580 C   0  0  0  0  0  3  0  0  0  0  0  0
   38.0350    1.8860    6.9990 C   0  0  0  0  0  3  0  0  0  0  0  0
   36.3920    1.5470    9.2370 C   0  0  0  0  0  3  0  0  0  0  0  0
   38.1340    2.7670    8.0810 C   0  0  0  0  0  3  0  0  0  0  0  0
   37.3120    2.5980    9.1980 C   0  0  0  0  0  3  0  0  0  0  0  0
  1  9  1  6  0  0  0
  1  2  1  0  0  0  0
  2  4  1  0  0  0  0
  3  2  1  0  0  0  0
  5  1  1  0  0  0  0
  6  5  2  0  0  0  0
  7  5  1  0  0  0  0
  8  7  1  0  0  0  0
  9 10  1  0  0  0  0
 10 11  1  0  0  0  0
 11 13  2  0  0  0  0
 12 10  2  0  0  0  0
 12 14  1  0  0  0  0
 14 15  2  0  0  0  0
 15 13  1  0  0  0  0
M  END
>  <MODEL>
2

>  <REMARK>
 VINA RESULT:    -5.135      0.178      1.410
 INTER + INTRA:          -6.519
 INTER:                  -6.350
 INTRA:                  -0.169
 UNBOUND:                -0.183
  Name = PHE
  5 active torsions:
  status: ('A' for Active; 'I' for Inactive)
    1  A    between atoms: N_1  and  CA_2
    2  A    between atoms: CA_2  and  C_3
    3  A    between atoms: CA_2  and  CB_5
    4  A    between atoms: C_3  and  OXT_12
    5  A    between atoms: CB_5  and  CG_6
                            x       y       z     vdW  Elec       q    Type
                         _______ _______ _______ _____ _____    ______ ____

>  <TORSDO>
F 5

$$$$
