PHE
 OpenBabel09132600403D

 15 15  0  0  1  0  0  0  0  0999 V2000
   37.1690    2.0330    8.8510 C   0  0  2  0  0  3  0  0  0  0  0  0
   37.3820    3.1580    9.7660 N   0  0  0  0  0  0  0  0  0  0  0  0
   37.2970    4.0590    9.2400 H   0  0  0  0  0  0  0  0  0  0  0  0
   38.3580    3.1050   10.1420 H   0  0  0  0  0  0  0  0  0  0  0  0
   37.0110    0.7450    9.6140 C   0  0  0  0  0  0  0  0  0  0  0  0
   36.9220    0.7560   10.8720 O   0  0  0  0  0  0  0  0  0  0  0  0
   36.9650   -0.4640    8.9270 O   0  0  0  0  0  0  0  0  0  0  0  0
   36.2680   -0.6300    8.2120 H   0  0  0  0  0  0  0  0  0  0  0  0
   38.3290    1.9240    7.8450 C   0  0  0  0  0  2  0  0  0  0  0  0
   37.8560    2.1620    6.4330 C   0  0  0  0  0  0  0  0  0  0  0  0
   36.7650    1.4380    5.9210 C   0  0  0  0  0  3  0  0  0  0  0  0
   38.4680    3.1410    5.6330 C   0  0  0  0  0  3  0  0  0  0  0  0
   36.3080    1.6780    4.6210 C   0  0  0  0  0  3  0  0  0  0  0  0
   38.0080    3.3770    4.3330 C   0  0  0  0  0  3  0  0  0  0  0  0
   36.9300    2.6460    3.8280 C   0  0  0  0  0  3  0  0  0  0  0  0
  1  9  1  6  0  0  0
  1  5  1  0  0  0  0
  1  2  1  0  0  0  0
  2  4  1  0  0  0  0
  3  2  1  0  0  0  0
  5  6  2  0  0  0  0
  7  5  1  0  0  0  0
  8  7  1  0  0  0  0
 10  9  1  0  0  0  0
 11 10  1  0  0  0  0
 12 10  2  0  0  0  0
 13 11  2  0  0  0  0
 14 12  1  0  0  0  0
 15 14  2  0  0  0  0
 15 13  1  0  0  0  0
M  END
>  <MODEL>
3

>  <REMARK>
 VINA RESULT:    -4.997      3.670      5.006
 INTER + INTRA:          -6.348
 INTER:                  -6.140
 INTRA:                  -0.208
 UNBOUND:                -0.183
  Name = PHE
  5 active torsions:
  status: ('A' for Active; 'I' for Inactive)
    1  A    between atoms: N_1  and  CA_2
    2  A    between atoms: CA_2  and  C_3
    3  A    between atoms: CA_2  and  CB_5
    4  A    between atoms: C_3  and  OXT_12
    5  A    between atoms: CB_5  and  CG_6
                            x       y       z     vdW  Elec       q    Type
                         _______ _______ _______ _____ _____    ______ ____

>  <TORSDO>
F 5

$$$$
