PHE
 OpenBabel09132600403D

 15 15  0  0  1  0  0  0  0  0999 V2000
   35.5840   -0.5550    5.7460 C   0  0  2  0  0  3  0  0  0  0  0  0
   35.4360   -1.9990    5.9490 N   0  0  0  0  0  0  0  0  0  0  0  0
   35.7860   -2.2580    6.9010 H   0  0  0  0  0  0  0  0  0  0  0  0
   36.0310   -2.5000    5.2490 H   0  0  0  0  0  0  0  0  0  0  0  0
   35.1700   -0.1670    4.3510 C   0  0  0  0  0  0  0  0  0  0  0  0
   34.9680   -1.0520    3.4750 O   0  0  0  0  0  0  0  0  0  0  0  0
   35.0110    1.1770    4.0270 O   0  0  0  0  0  0  0  0  0  0  0  0
   35.6650    1.8740    4.3620 H   0  0  0  0  0  0  0  0  0  0  0  0
   37.0330   -0.1140    6.0190 C   0  0  0  0  0  2  0  0  0  0  0  0
   37.1060    0.8350    7.1890 C   0  0  0  0  0  0  0  0  0  0  0  0
   38.0030    1.9170    7.1670 C   0  0  0  0  0  3  0  0  0  0  0  0
   36.2460    0.6750    8.2890 C   0  0  0  0  0  3  0  0  0  0  0  0
   38.0510    2.8130    8.2400 C   0  0  0  0  0  3  0  0  0  0  0  0
   36.2990    1.5740    9.3600 C   0  0  0  0  0  3  0  0  0  0  0  0
   37.2010    2.6410    9.3350 C   0  0  0  0  0  3  0  0  0  0  0  0
  1  2  1  0  0  0  0
  1  9  1  6  0  0  0
  2  3  1  0  0  0  0
  4  2  1  0  0  0  0
  5  1  1  0  0  0  0
  6  5  2  0  0  0  0
  7  5  1  0  0  0  0
  7  8  1  0  0  0  0
  9 10  1  0  0  0  0
 10 12  1  0  0  0  0
 11 10  2  0  0  0  0
 11 13  1  0  0  0  0
 12 14  2  0  0  0  0
 13 15  2  0  0  0  0
 15 14  1  0  0  0  0
M  END
>  <MODEL>
1

>  <REMARK>
 VINA RESULT:    -5.169      0.000      0.000
 INTER + INTRA:          -6.561
 INTER:                  -6.378
 INTRA:                  -0.183
 UNBOUND:                -0.183
  Name = PHE
  5 active torsions:
  status: ('A' for Active; 'I' for Inactive)
    1  A    between atoms: N_1  and  CA_2
    2  A    between atoms: CA_2  and  C_3
    3  A    between atoms: CA_2  and  CB_5
    4  A    between atoms: C_3  and  OXT_12
    5  A    between atoms: CB_5  and  CG_6
                            x       y       z     vdW  Elec       q    Type
                         _______ _______ _______ _____ _____    ______ ____

>  <TORSDO>
F 5

$$$$
