PHE
 OpenBabel09132600403D

 15 15  0  0  1  0  0  0  0  0999 V2000
   36.7290    1.3620    5.0270 C   0  0  2  0  0  3  0  0  0  0  0  0
   35.4580    1.4770    4.3060 N   0  0  0  0  0  0  0  0  0  0  0  0
   35.6430    1.7300    3.3070 H   0  0  0  0  0  0  0  0  0  0  0  0
   34.9000    2.2550    4.7290 H   0  0  0  0  0  0  0  0  0  0  0  0
   37.8130    0.8450    4.1200 C   0  0  0  0  0  0  0  0  0  0  0  0
   37.6550    0.8480    2.8690 O   0  0  0  0  0  0  0  0  0  0  0  0
   38.9970    0.3570    4.6660 O   0  0  0  0  0  0  0  0  0  0  0  0
   38.9890   -0.1910    5.5180 H   0  0  0  0  0  0  0  0  0  0  0  0
   36.5740    0.4480    6.2570 C   0  0  0  0  0  2  0  0  0  0  0  0
   36.8190    1.2060    7.5370 C   0  0  0  0  0  0  0  0  0  0  0  0
   37.7020    2.2990    7.5540 C   0  0  0  0  0  3  0  0  0  0  0  0
   36.1340    0.8560    8.7130 C   0  0  0  0  0  3  0  0  0  0  0  0
   37.9090    3.0200    8.7350 C   0  0  0  0  0  3  0  0  0  0  0  0
   36.3440    1.5790    9.8920 C   0  0  0  0  0  3  0  0  0  0  0  0
   37.2310    2.6590    9.9030 C   0  0  0  0  0  3  0  0  0  0  0  0
  1  9  1  1  0  0  0
  2  4  1  0  0  0  0
  2  1  1  0  0  0  0
  3  2  1  0  0  0  0
  5  7  1  0  0  0  0
  5  1  1  0  0  0  0
  6  5  2  0  0  0  0
  7  8  1  0  0  0  0
  9 10  1  0  0  0  0
 10 11  2  0  0  0  0
 10 12  1  0  0  0  0
 11 13  1  0  0  0  0
 12 14  2  0  0  0  0
 13 15  2  0  0  0  0
 14 15  1  0  0  0  0
M  END
>  <MODEL>
9

>  <REMARK>
 VINA RESULT:    -4.672      2.062      2.217
 INTER + INTRA:          -5.947
 INTER:                  -5.731
 INTRA:                  -0.216
 UNBOUND:                -0.183
  Name = PHE
  5 active torsions:
  status: ('A' for Active; 'I' for Inactive)
    1  A    between atoms: N_1  and  CA_2
    2  A    between atoms: CA_2  and  C_3
    3  A    between atoms: CA_2  and  CB_5
    4  A    between atoms: C_3  and  OXT_12
    5  A    between atoms: CB_5  and  CG_6
                            x       y       z     vdW  Elec       q    Type
                         _______ _______ _______ _____ _____    ______ ____

>  <TORSDO>
F 5

$$$$
