PHE
 OpenBabel09132600403D

 15 15  0  0  1  0  0  0  0  0999 V2000
   37.0490    1.9640    8.2780 C   0  0  2  0  0  3  0  0  0  0  0  0
   38.0680    2.9990    8.4750 N   0  0  0  0  0  0  0  0  0  0  0  0
   38.1720    3.5610    7.5990 H   0  0  0  0  0  0  0  0  0  0  0  0
   38.9880    2.5340    8.6610 H   0  0  0  0  0  0  0  0  0  0  0  0
   36.5180    1.4770    9.6000 C   0  0  0  0  0  0  0  0  0  0  0  0
   36.7220    2.1410   10.6530 O   0  0  0  0  0  0  0  0  0  0  0  0
   35.8000    0.2870    9.6600 O   0  0  0  0  0  0  0  0  0  0  0  0
   36.2520   -0.6020    9.4810 H   0  0  0  0  0  0  0  0  0  0  0  0
   37.6190    0.7900    7.4610 C   0  0  0  0  0  2  0  0  0  0  0  0
   36.7310    0.4540    6.2900 C   0  0  0  0  0  0  0  0  0  0  0  0
   36.1400   -0.8170    6.1910 C   0  0  0  0  0  3  0  0  0  0  0  0
   36.4470    1.4220    5.3110 C   0  0  0  0  0  3  0  0  0  0  0  0
   35.2950   -1.1200    5.1200 C   0  0  0  0  0  3  0  0  0  0  0  0
   35.6010    1.1150    4.2410 C   0  0  0  0  0  3  0  0  0  0  0  0
   35.0270   -0.1550    4.1450 C   0  0  0  0  0  3  0  0  0  0  0  0
  1  9  1  1  0  0  0
  1  2  1  0  0  0  0
  1  5  1  0  0  0  0
  2  4  1  0  0  0  0
  3  2  1  0  0  0  0
  5  7  1  0  0  0  0
  5  6  2  0  0  0  0
  8  7  1  0  0  0  0
 10  9  1  0  0  0  0
 11 10  1  0  0  0  0
 12 10  2  0  0  0  0
 13 11  2  0  0  0  0
 14 12  1  0  0  0  0
 15 14  2  0  0  0  0
 15 13  1  0  0  0  0
M  END
>  <MODEL>
6

>  <REMARK>
 VINA RESULT:    -4.902      3.269      5.067
 INTER + INTRA:          -6.232
 INTER:                  -6.020
 INTRA:                  -0.212
 UNBOUND:                -0.183
  Name = PHE
  5 active torsions:
  status: ('A' for Active; 'I' for Inactive)
    1  A    between atoms: N_1  and  CA_2
    2  A    between atoms: CA_2  and  C_3
    3  A    between atoms: CA_2  and  CB_5
    4  A    between atoms: C_3  and  OXT_12
    5  A    between atoms: CB_5  and  CG_6
                            x       y       z     vdW  Elec       q    Type
                         _______ _______ _______ _____ _____    ______ ____

>  <TORSDO>
F 5

$$$$
