PHE
 OpenBabel09132600403D

 15 15  0  0  1  0  0  0  0  0999 V2000
   37.9100    0.6520    5.1670 C   0  0  2  0  0  3  0  0  0  0  0  0
   38.9550    0.0680    4.3210 N   0  0  0  0  0  0  0  0  0  0  0  0
   39.2010   -0.8860    4.6740 H   0  0  0  0  0  0  0  0  0  0  0  0
   39.8150    0.6610    4.3920 H   0  0  0  0  0  0  0  0  0  0  0  0
   36.8010    1.2270    4.3270 C   0  0  0  0  0  0  0  0  0  0  0  0
   35.8530    0.4940    3.9340 O   0  0  0  0  0  0  0  0  0  0  0  0
   36.8250    2.5740    3.9800 O   0  0  0  0  0  0  0  0  0  0  0  0
   36.2550    3.2490    4.4750 H   0  0  0  0  0  0  0  0  0  0  0  0
   38.5010    1.7310    6.0920 C   0  0  0  0  0  2  0  0  0  0  0  0
   37.8210    1.7330    7.4380 C   0  0  0  0  0  0  0  0  0  0  0  0
   38.0170    2.8020    8.3280 C   0  0  0  0  0  3  0  0  0  0  0  0
   36.9490    0.6900    7.7960 C   0  0  0  0  0  3  0  0  0  0  0  0
   37.3650    2.8180    9.5650 C   0  0  0  0  0  3  0  0  0  0  0  0
   36.2990    0.7100    9.0340 C   0  0  0  0  0  3  0  0  0  0  0  0
   36.5080    1.7710    9.9180 C   0  0  0  0  0  3  0  0  0  0  0  0
  1  9  1  6  0  0  0
  2  4  1  0  0  0  0
  2  3  1  0  0  0  0
  2  1  1  0  0  0  0
  5  1  1  0  0  0  0
  6  5  2  0  0  0  0
  7  5  1  0  0  0  0
  7  8  1  0  0  0  0
  9 10  1  0  0  0  0
 10 12  2  0  0  0  0
 10 11  1  0  0  0  0
 11 13  2  0  0  0  0
 12 14  1  0  0  0  0
 13 15  1  0  0  0  0
 14 15  2  0  0  0  0
M  END
>  <MODEL>
13

>  <REMARK>
 VINA RESULT:    -4.546      1.800      2.126
 INTER + INTRA:          -5.792
 INTER:                  -5.654
 INTRA:                  -0.139
 UNBOUND:                -0.183
  Name = PHE
  5 active torsions:
  status: ('A' for Active; 'I' for Inactive)
    1  A    between atoms: N_1  and  CA_2
    2  A    between atoms: CA_2  and  C_3
    3  A    between atoms: CA_2  and  CB_5
    4  A    between atoms: C_3  and  OXT_12
    5  A    between atoms: CB_5  and  CG_6
                            x       y       z     vdW  Elec       q    Type
                         _______ _______ _______ _____ _____    ______ ____

>  <TORSDO>
F 5

$$$$
