PHE
 OpenBabel09132600403D

 15 15  0  0  1  0  0  0  0  0999 V2000
   37.8380    2.2480    4.6590 C   0  0  2  0  0  3  0  0  0  0  0  0
   36.5560    2.5400    4.0110 N   0  0  0  0  0  0  0  0  0  0  0  0
   35.7720    2.1820    4.6060 H   0  0  0  0  0  0  0  0  0  0  0  0
   36.5160    2.0300    3.0990 H   0  0  0  0  0  0  0  0  0  0  0  0
   38.9010    1.9580    3.6330 C   0  0  0  0  0  0  0  0  0  0  0  0
   39.5040    0.8500    3.6350 O   0  0  0  0  0  0  0  0  0  0  0  0
   39.2210    2.9190    2.6790 O   0  0  0  0  0  0  0  0  0  0  0  0
   38.6590    3.7550    2.5740 H   0  0  0  0  0  0  0  0  0  0  0  0
   37.6960    1.0670    5.6360 C   0  0  0  0  0  2  0  0  0  0  0  0
   37.4030    1.5450    7.0360 C   0  0  0  0  0  0  0  0  0  0  0  0
   36.4300    0.8970    7.8160 C   0  0  0  0  0  3  0  0  0  0  0  0
   38.1300    2.6120    7.5900 C   0  0  0  0  0  3  0  0  0  0  0  0
   36.1770    1.3220    9.1230 C   0  0  0  0  0  3  0  0  0  0  0  0
   37.8740    3.0340    8.8990 C   0  0  0  0  0  3  0  0  0  0  0  0
   36.8970    2.3910    9.6640 C   0  0  0  0  0  3  0  0  0  0  0  0
  1  9  1  1  0  0  0
  2  3  1  0  0  0  0
  2  1  1  0  0  0  0
  4  2  1  0  0  0  0
  5  6  2  0  0  0  0
  5  1  1  0  0  0  0
  7  5  1  0  0  0  0
  8  7  1  0  0  0  0
  9 10  1  0  0  0  0
 10 12  2  0  0  0  0
 10 11  1  0  0  0  0
 11 13  2  0  0  0  0
 12 14  1  0  0  0  0
 13 15  1  0  0  0  0
 14 15  2  0  0  0  0
M  END
>  <MODEL>
18

>  <REMARK>
 VINA RESULT:    -4.346      2.777      3.309
 INTER + INTRA:          -5.546
 INTER:                  -5.366
 INTRA:                  -0.179
 UNBOUND:                -0.183
  Name = PHE
  5 active torsions:
  status: ('A' for Active; 'I' for Inactive)
    1  A    between atoms: N_1  and  CA_2
    2  A    between atoms: CA_2  and  C_3
    3  A    between atoms: CA_2  and  CB_5
    4  A    between atoms: C_3  and  OXT_12
    5  A    between atoms: CB_5  and  CG_6
                            x       y       z     vdW  Elec       q    Type
                         _______ _______ _______ _____ _____    ______ ____

>  <TORSDO>
F 5

$$$$
