PHE
 OpenBabel09132600403D

 15 15  0  0  1  0  0  0  0  0999 V2000
   37.3670    0.2860    7.6400 C   0  0  2  0  0  3  0  0  0  0  0  0
   36.9650   -0.1250    8.9880 N   0  0  0  0  0  0  0  0  0  0  0  0
   37.3040    0.5770    9.6850 H   0  0  0  0  0  0  0  0  0  0  0  0
   37.4250   -1.0380    9.2120 H   0  0  0  0  0  0  0  0  0  0  0  0
   38.3710    1.4060    7.7000 C   0  0  0  0  0  0  0  0  0  0  0  0
   39.5260    1.2550    7.2180 O   0  0  0  0  0  0  0  0  0  0  0  0
   38.0220    2.6150    8.2950 O   0  0  0  0  0  0  0  0  0  0  0  0
   38.4530    3.4830    8.0000 H   0  0  0  0  0  0  0  0  0  0  0  0
   36.1390    0.7070    6.8120 C   0  0  0  0  0  2  0  0  0  0  0  0
   35.9910   -0.1470    5.5780 C   0  0  0  0  0  0  0  0  0  0  0  0
   36.0520   -1.5480    5.6760 C   0  0  0  0  0  3  0  0  0  0  0  0
   35.7430    0.4450    4.3280 C   0  0  0  0  0  3  0  0  0  0  0  0
   35.8860   -2.3410    4.5360 C   0  0  0  0  0  3  0  0  0  0  0  0
   35.5790   -0.3520    3.1910 C   0  0  0  0  0  3  0  0  0  0  0  0
   35.6520   -1.7430    3.2950 C   0  0  0  0  0  3  0  0  0  0  0  0
  1  9  1  6  0  0  0
  1  5  1  0  0  0  0
  1  2  1  0  0  0  0
  2  4  1  0  0  0  0
  2  3  1  0  0  0  0
  5  7  1  0  0  0  0
  6  5  2  0  0  0  0
  8  7  1  0  0  0  0
 10 11  1  0  0  0  0
 10  9  1  0  0  0  0
 12 10  2  0  0  0  0
 13 11  2  0  0  0  0
 14 15  2  0  0  0  0
 14 12  1  0  0  0  0
 15 13  1  0  0  0  0
M  END
>  <MODEL>
16

>  <REMARK>
 VINA RESULT:    -4.390      2.939      5.019
 INTER + INTRA:          -5.599
 INTER:                  -5.436
 INTRA:                  -0.163
 UNBOUND:                -0.183
  Name = PHE
  5 active torsions:
  status: ('A' for Active; 'I' for Inactive)
    1  A    between atoms: N_1  and  CA_2
    2  A    between atoms: CA_2  and  C_3
    3  A    between atoms: CA_2  and  CB_5
    4  A    between atoms: C_3  and  OXT_12
    5  A    between atoms: CB_5  and  CG_6
                            x       y       z     vdW  Elec       q    Type
                         _______ _______ _______ _____ _____    ______ ____

>  <TORSDO>
F 5

$$$$
