PHE
 OpenBabel09132600403D

 15 15  0  0  1  0  0  0  0  0999 V2000
   36.7860    0.4400    5.1190 C   0  0  2  0  0  3  0  0  0  0  0  0
   37.4600   -0.5520    4.2770 N   0  0  0  0  0  0  0  0  0  0  0  0
   38.0630   -0.0650    3.5740 H   0  0  0  0  0  0  0  0  0  0  0  0
   36.7360   -1.0920    3.7490 H   0  0  0  0  0  0  0  0  0  0  0  0
   35.8940    1.3260    4.2910 C   0  0  0  0  0  0  0  0  0  0  0  0
   34.7930    0.8950    3.8530 O   0  0  0  0  0  0  0  0  0  0  0  0
   36.2900    2.6300    4.0040 O   0  0  0  0  0  0  0  0  0  0  0  0
   36.6380    2.8770    3.0860 H   0  0  0  0  0  0  0  0  0  0  0  0
   37.8140    1.2840    5.8940 C   0  0  0  0  0  2  0  0  0  0  0  0
   37.3630    1.5330    7.3110 C   0  0  0  0  0  0  0  0  0  0  0  0
   36.4500    0.6600    7.9260 C   0  0  0  0  0  3  0  0  0  0  0  0
   37.8860    2.6110    8.0450 C   0  0  0  0  0  3  0  0  0  0  0  0
   36.0520    0.8750    9.2500 C   0  0  0  0  0  3  0  0  0  0  0  0
   37.4860    2.8220    9.3680 C   0  0  0  0  0  3  0  0  0  0  0  0
   36.5690    1.9560    9.9690 C   0  0  0  0  0  3  0  0  0  0  0  0
  1  9  1  6  0  0  0
  2  1  1  0  0  0  0
  3  2  1  0  0  0  0
  4  2  1  0  0  0  0
  5  1  1  0  0  0  0
  6  5  2  0  0  0  0
  7  5  1  0  0  0  0
  8  7  1  0  0  0  0
  9 10  1  0  0  0  0
 10 11  2  0  0  0  0
 10 12  1  0  0  0  0
 11 13  1  0  0  0  0
 12 14  2  0  0  0  0
 13 15  2  0  0  0  0
 14 15  1  0  0  0  0
M  END
>  <MODEL>
7

>  <REMARK>
 VINA RESULT:    -4.841      1.353      2.031
 INTER + INTRA:          -6.155
 INTER:                  -5.954
 INTRA:                  -0.202
 UNBOUND:                -0.183
  Name = PHE
  5 active torsions:
  status: ('A' for Active; 'I' for Inactive)
    1  A    between atoms: N_1  and  CA_2
    2  A    between atoms: CA_2  and  C_3
    3  A    between atoms: CA_2  and  CB_5
    4  A    between atoms: C_3  and  OXT_12
    5  A    between atoms: CB_5  and  CG_6
                            x       y       z     vdW  Elec       q    Type
                         _______ _______ _______ _____ _____    ______ ____

>  <TORSDO>
F 5

$$$$
