PHE
 OpenBabel09132600403D

 15 15  0  0  1  0  0  0  0  0999 V2000
   28.3380   -5.4790    1.7040 C   0  0  2  0  0  3  0  0  0  0  0  0
   28.6290   -4.4540    2.7100 N   0  0  0  0  0  0  0  0  0  0  0  0
   29.2850   -4.8410    3.4270 H   0  0  0  0  0  0  0  0  0  0  0  0
   27.7390   -4.2030    3.2010 H   0  0  0  0  0  0  0  0  0  0  0  0
   27.0260   -6.1560    1.9950 C   0  0  0  0  0  0  0  0  0  0  0  0
   26.4640   -6.0060    3.1150 O   0  0  0  0  0  0  0  0  0  0  0  0
   26.4300   -6.9550    1.0240 O   0  0  0  0  0  0  0  0  0  0  0  0
   25.4990   -7.3290    1.1580 H   0  0  0  0  0  0  0  0  0  0  0  0
   29.4760   -6.5140    1.6400 C   0  0  0  0  0  2  0  0  0  0  0  0
   29.9980   -6.6680    0.2340 C   0  0  0  0  0  0  0  0  0  0  0  0
   29.5010   -7.6870   -0.5980 C   0  0  0  0  0  3  0  0  0  0  0  0
   30.9510   -5.7690   -0.2740 C   0  0  0  0  0  3  0  0  0  0  0  0
   29.9650   -7.8130   -1.9110 C   0  0  0  0  0  3  0  0  0  0  0  0
   31.4120   -5.8990   -1.5880 C   0  0  0  0  0  3  0  0  0  0  0  0
   30.9210   -6.9210   -2.4040 C   0  0  0  0  0  3  0  0  0  0  0  0
  1  9  1  1  0  0  0
  1  5  1  0  0  0  0
  1  2  1  0  0  0  0
  2  4  1  0  0  0  0
  2  3  1  0  0  0  0
  5  6  2  0  0  0  0
  7  8  1  0  0  0  0
  7  5  1  0  0  0  0
 10  9  1  0  0  0  0
 11 10  2  0  0  0  0
 12 10  1  0  0  0  0
 13 11  1  0  0  0  0
 14 12  2  0  0  0  0
 15 13  2  0  0  0  0
 15 14  1  0  0  0  0
M  END
>  <MODEL>
15

>  <REMARK>
 VINA RESULT:    -4.470     11.412     12.580
 INTER + INTRA:          -5.698
 INTER:                  -5.488
 INTRA:                  -0.211
 UNBOUND:                -0.183
  Name = PHE
  5 active torsions:
  status: ('A' for Active; 'I' for Inactive)
    1  A    between atoms: N_1  and  CA_2
    2  A    between atoms: CA_2  and  C_3
    3  A    between atoms: CA_2  and  CB_5
    4  A    between atoms: C_3  and  OXT_12
    5  A    between atoms: CB_5  and  CG_6
                            x       y       z     vdW  Elec       q    Type
                         _______ _______ _______ _____ _____    ______ ____

>  <TORSDO>
F 5

$$$$
