PHE
 OpenBabel09132600403D

 15 15  0  0  1  0  0  0  0  0999 V2000
   35.8660   -1.0510    5.0260 C   0  0  2  0  0  3  0  0  0  0  0  0
   34.7350   -0.5120    4.2660 N   0  0  0  0  0  0  0  0  0  0  0  0
   35.0880    0.1380    3.5250 H   0  0  0  0  0  0  0  0  0  0  0  0
   34.1310    0.0480    4.9130 H   0  0  0  0  0  0  0  0  0  0  0  0
   35.8960   -2.5540    4.9460 C   0  0  0  0  0  0  0  0  0  0  0  0
   35.9260   -3.1330    3.8260 O   0  0  0  0  0  0  0  0  0  0  0  0
   35.8880   -3.3080    6.1160 O   0  0  0  0  0  0  0  0  0  0  0  0
   36.0100   -2.8680    7.0190 H   0  0  0  0  0  0  0  0  0  0  0  0
   35.8020   -0.5910    6.4940 C   0  0  0  0  0  2  0  0  0  0  0  0
   36.8000    0.5060    6.7690 C   0  0  0  0  0  0  0  0  0  0  0  0
   36.7230    1.2500    7.9590 C   0  0  0  0  0  3  0  0  0  0  0  0
   37.8420    0.7630    5.8630 C   0  0  0  0  0  3  0  0  0  0  0  0
   37.6640    2.2490    8.2270 C   0  0  0  0  0  3  0  0  0  0  0  0
   38.7820    1.7630    6.1350 C   0  0  0  0  0  3  0  0  0  0  0  0
   38.6920    2.5060    7.3160 C   0  0  0  0  0  3  0  0  0  0  0  0
  1  9  1  1  0  0  0
  2  4  1  0  0  0  0
  2  1  1  0  0  0  0
  3  2  1  0  0  0  0
  5  1  1  0  0  0  0
  5  7  1  0  0  0  0
  6  5  2  0  0  0  0
  7  8  1  0  0  0  0
  9 10  1  0  0  0  0
 10 11  1  0  0  0  0
 11 13  2  0  0  0  0
 12 14  1  0  0  0  0
 12 10  2  0  0  0  0
 14 15  2  0  0  0  0
 15 13  1  0  0  0  0
M  END
>  <MODEL>
5

>  <REMARK>
 VINA RESULT:    -4.922      1.823      2.589
 INTER + INTRA:          -6.255
 INTER:                  -6.067
 INTRA:                  -0.188
 UNBOUND:                -0.183
  Name = PHE
  5 active torsions:
  status: ('A' for Active; 'I' for Inactive)
    1  A    between atoms: N_1  and  CA_2
    2  A    between atoms: CA_2  and  C_3
    3  A    between atoms: CA_2  and  CB_5
    4  A    between atoms: C_3  and  OXT_12
    5  A    between atoms: CB_5  and  CG_6
                            x       y       z     vdW  Elec       q    Type
                         _______ _______ _______ _____ _____    ______ ____

>  <TORSDO>
F 5

$$$$
