PHE
 OpenBabel09132600403D

 15 15  0  0  1  0  0  0  0  0999 V2000
   36.0970    0.0400    6.0450 C   0  0  2  0  0  3  0  0  0  0  0  0
   36.2810   -0.1840    7.4820 N   0  0  0  0  0  0  0  0  0  0  0  0
   37.3030   -0.2260    7.7030 H   0  0  0  0  0  0  0  0  0  0  0  0
   35.8670   -1.1120    7.7330 H   0  0  0  0  0  0  0  0  0  0  0  0
   35.3430   -1.1030    5.4180 C   0  0  0  0  0  0  0  0  0  0  0  0
   34.6570   -0.9190    4.3760 O   0  0  0  0  0  0  0  0  0  0  0  0
   35.4010   -2.3680    5.9950 O   0  0  0  0  0  0  0  0  0  0  0  0
   35.2150   -2.4990    6.9810 H   0  0  0  0  0  0  0  0  0  0  0  0
   37.4560    0.2340    5.3480 C   0  0  0  0  0  2  0  0  0  0  0  0
   37.7030    1.6850    5.0220 C   0  0  0  0  0  0  0  0  0  0  0  0
   37.0050    2.3020    3.9690 C   0  0  0  0  0  3  0  0  0  0  0  0
   38.5950    2.4470    5.7950 C   0  0  0  0  0  3  0  0  0  0  0  0
   37.2130    3.6550    3.6830 C   0  0  0  0  0  3  0  0  0  0  0  0
   38.8000    3.8000    5.5060 C   0  0  0  0  0  3  0  0  0  0  0  0
   38.1110    4.4020    4.4500 C   0  0  0  0  0  3  0  0  0  0  0  0
  1  9  1  6  0  0  0
  1  2  1  0  0  0  0
  2  3  1  0  0  0  0
  2  4  1  0  0  0  0
  5  7  1  0  0  0  0
  5  1  1  0  0  0  0
  6  5  2  0  0  0  0
  7  8  1  0  0  0  0
 10  9  1  0  0  0  0
 10 12  1  0  0  0  0
 11 10  2  0  0  0  0
 13 11  1  0  0  0  0
 13 15  2  0  0  0  0
 14 12  2  0  0  0  0
 15 14  1  0  0  0  0
M  END
>  <MODEL>
19

>  <REMARK>
 VINA RESULT:    -4.280      2.425      3.359
 INTER + INTRA:          -5.463
 INTER:                  -5.280
 INTRA:                  -0.183
 UNBOUND:                -0.183
  Name = PHE
  5 active torsions:
  status: ('A' for Active; 'I' for Inactive)
    1  A    between atoms: N_1  and  CA_2
    2  A    between atoms: CA_2  and  C_3
    3  A    between atoms: CA_2  and  CB_5
    4  A    between atoms: C_3  and  OXT_12
    5  A    between atoms: CB_5  and  CG_6
                            x       y       z     vdW  Elec       q    Type
                         _______ _______ _______ _____ _____    ______ ____

>  <TORSDO>
F 5

$$$$
