BGC
 OpenBabel09132600403D

 17 17  0  0  1  0  0  0  0  0999 V2000
   46.5550    8.4470   27.7220 C   0  0  2  0  0  3  0  0  0  0  0  0
   47.5650    8.7140   28.8510 C   0  0  2  0  0  3  0  0  0  0  0  0
   47.9310   10.2080   28.9060 C   0  0  1  0  0  3  0  0  0  0  0  0
   48.2770   10.7770   27.5060 C   0  0  2  0  0  3  0  0  0  0  0  0
   47.0410    9.0590   26.3940 C   0  0  1  0  0  3  0  0  0  0  0  0
   47.3210   10.4470   26.5030 O   0  0  0  0  0  0  0  0  0  0  0  0
   48.1470    8.3640   25.8770 O   0  0  0  0  0  0  0  0  0  0  0  0
   48.7270    8.1260   26.6470 H   0  0  0  0  0  0  0  0  0  0  0  0
   45.3050    9.0000   28.0490 O   0  0  0  0  0  0  0  0  0  0  0  0
   45.3910    9.9850   27.9520 H   0  0  0  0  0  0  0  0  0  0  0  0
   48.7250    7.9440   28.6670 O   0  0  0  0  0  0  0  0  0  0  0  0
   48.7980    7.3390   29.4520 H   0  0  0  0  0  0  0  0  0  0  0  0
   46.8540   10.9400   29.4360 O   0  0  0  0  0  0  0  0  0  0  0  0
   46.1520   10.2850   29.6870 H   0  0  0  0  0  0  0  0  0  0  0  0
   49.7300   10.5040   27.0680 C   0  0  0  0  0  2  0  0  0  0  0  0
   50.6080   11.2980   27.8180 O   0  0  0  0  0  0  0  0  0  0  0  0
   50.1170   11.5500   28.6420 H   0  0  0  0  0  0  0  0  0  0  0  0
  1  9  1  1  0  0  0
  1  2  1  0  0  0  0
  2 11  1  6  0  0  0
  2  3  1  0  0  0  0
  3 13  1  6  0  0  0
  4 15  1  6  0  0  0
  4  3  1  0  0  0  0
  5  7  1  1  0  0  0
  5  6  1  0  0  0  0
  5  1  1  0  0  0  0
  6  4  1  0  0  0  0
  7  8  1  0  0  0  0
 10  9  1  0  0  0  0
 11 12  1  0  0  0  0
 13 14  1  0  0  0  0
 15 16  1  0  0  0  0
 16 17  1  0  0  0  0
M  END
>  <MODEL>
15

>  <REMARK>
 VINA RESULT:    -5.049      1.477      3.067
 INTER + INTRA:          -6.106
 INTER:                  -6.061
 INTRA:                  -0.046
 UNBOUND:                -0.024
  Name = BGC
  6 active torsions:
  status: ('A' for Active; 'I' for Inactive)
    1  A    between atoms: C_1  and  O_8
    2  A    between atoms: C_2  and  O_9
    3  A    between atoms: C_3  and  O_10
    4  A    between atoms: C_4  and  C_5
    5  A    between atoms: C_5  and  O_12
    6  A    between atoms: C_6  and  O_7
                            x       y       z     vdW  Elec       q    Type
                         _______ _______ _______ _____ _____    ______ ____

>  <TORSDO>
F 6

$$$$
