BGC
 OpenBabel09132600403D

 17 17  0  0  1  0  0  0  0  0999 V2000
   46.8250    8.1370   26.0000 C   0  0  2  0  0  3  0  0  0  0  0  0
   46.2260    9.4950   26.4040 C   0  0  2  0  0  3  0  0  0  0  0  0
   47.3090   10.4040   27.0120 C   0  0  1  0  0  3  0  0  0  0  0  0
   48.1580    9.6670   28.0790 C   0  0  2  0  0  3  0  0  0  0  0  0
   47.6280    7.5230   27.1630 C   0  0  1  0  0  3  0  0  0  0  0  0
   48.6380    8.3960   27.6500 O   0  0  0  0  0  0  0  0  0  0  0  0
   46.7880    7.0980   28.2050 O   0  0  0  0  0  0  0  0  0  0  0  0
   47.1330    7.5070   29.0420 H   0  0  0  0  0  0  0  0  0  0  0  0
   47.6750    8.2930   24.8910 O   0  0  0  0  0  0  0  0  0  0  0  0
   47.8430    9.2670   24.7910 H   0  0  0  0  0  0  0  0  0  0  0  0
   45.1790    9.3180   27.3230 O   0  0  0  0  0  0  0  0  0  0  0  0
   45.0710    8.3390   27.4540 H   0  0  0  0  0  0  0  0  0  0  0  0
   48.1630   10.8670   25.9970 O   0  0  0  0  0  0  0  0  0  0  0  0
   47.5880   11.2560   25.2880 H   0  0  0  0  0  0  0  0  0  0  0  0
   47.5020    9.6250   29.4730 C   0  0  0  0  0  2  0  0  0  0  0  0
   46.5940   10.6840   29.6020 O   0  0  0  0  0  0  0  0  0  0  0  0
   45.7440   10.2820   29.9180 H   0  0  0  0  0  0  0  0  0  0  0  0
  1  9  1  6  0  0  0
  1  2  1  0  0  0  0
  1  5  1  0  0  0  0
  2  3  1  0  0  0  0
  2 11  1  1  0  0  0
  3 13  1  6  0  0  0
  3  4  1  0  0  0  0
  4 15  1  1  0  0  0
  5  6  1  0  0  0  0
  5  7  1  1  0  0  0
  6  4  1  0  0  0  0
  7  8  1  0  0  0  0
 10  9  1  0  0  0  0
 11 12  1  0  0  0  0
 14 13  1  0  0  0  0
 15 16  1  0  0  0  0
 16 17  1  0  0  0  0
M  END
>  <MODEL>
19

>  <REMARK>
 VINA RESULT:    -4.910      0.965      3.464
 INTER + INTRA:          -5.939
 INTER:                  -5.663
 INTRA:                  -0.277
 UNBOUND:                -0.024
  Name = BGC
  6 active torsions:
  status: ('A' for Active; 'I' for Inactive)
    1  A    between atoms: C_1  and  O_8
    2  A    between atoms: C_2  and  O_9
    3  A    between atoms: C_3  and  O_10
    4  A    between atoms: C_4  and  C_5
    5  A    between atoms: C_5  and  O_12
    6  A    between atoms: C_6  and  O_7
                            x       y       z     vdW  Elec       q    Type
                         _______ _______ _______ _____ _____    ______ ____

>  <TORSDO>
F 6

$$$$
