BGC
 OpenBabel09132600403D

 17 17  0  0  1  0  0  0  0  0999 V2000
   47.5750   10.0650   29.1770 C   0  0  2  0  0  3  0  0  0  0  0  0
   48.6530    9.9380   28.0860 C   0  0  2  0  0  3  0  0  0  0  0  0
   48.1000   10.3980   26.7250 C   0  0  1  0  0  3  0  0  0  0  0  0
   46.7140    9.7780   26.4170 C   0  0  2  0  0  3  0  0  0  0  0  0
   46.2620    9.3930   28.7320 C   0  0  1  0  0  3  0  0  0  0  0  0
   45.7850    9.8930   27.4910 O   0  0  0  0  0  0  0  0  0  0  0  0
   46.3820    7.9940   28.6970 O   0  0  0  0  0  0  0  0  0  0  0  0
   46.3370    7.6740   29.6360 H   0  0  0  0  0  0  0  0  0  0  0  0
   47.3240   11.4200   29.4530 O   0  0  0  0  0  0  0  0  0  0  0  0
   47.6870   11.6020   30.3600 H   0  0  0  0  0  0  0  0  0  0  0  0
   49.1060    8.6110   27.9930 O   0  0  0  0  0  0  0  0  0  0  0  0
   50.0930    8.6350   28.1030 H   0  0  0  0  0  0  0  0  0  0  0  0
   47.9800   11.7990   26.7120 O   0  0  0  0  0  0  0  0  0  0  0  0
   47.4190   12.0350   25.9280 H   0  0  0  0  0  0  0  0  0  0  0  0
   46.7870    8.3540   25.8320 C   0  0  0  0  0  2  0  0  0  0  0  0
   46.5550    8.3970   24.4500 O   0  0  0  0  0  0  0  0  0  0  0  0
   46.3860    9.3490   24.2280 H   0  0  0  0  0  0  0  0  0  0  0  0
  1  9  1  6  0  0  0
  2 11  1  6  0  0  0
  2  1  1  0  0  0  0
  3 13  1  1  0  0  0
  3  2  1  0  0  0  0
  4 15  1  1  0  0  0
  4  3  1  0  0  0  0
  4  6  1  0  0  0  0
  5  7  1  6  0  0  0
  5  1  1  0  0  0  0
  6  5  1  0  0  0  0
  7  8  1  0  0  0  0
  9 10  1  0  0  0  0
 11 12  1  0  0  0  0
 14 13  1  0  0  0  0
 16 15  1  0  0  0  0
 17 16  1  0  0  0  0
M  END
>  <MODEL>
1

>  <REMARK>
 VINA RESULT:    -5.886      0.000      0.000
 INTER + INTRA:          -7.115
 INTER:                  -7.091
 INTRA:                  -0.024
 UNBOUND:                -0.024
  Name = BGC
  6 active torsions:
  status: ('A' for Active; 'I' for Inactive)
    1  A    between atoms: C_1  and  O_8
    2  A    between atoms: C_2  and  O_9
    3  A    between atoms: C_3  and  O_10
    4  A    between atoms: C_4  and  C_5
    5  A    between atoms: C_5  and  O_12
    6  A    between atoms: C_6  and  O_7
                            x       y       z     vdW  Elec       q    Type
                         _______ _______ _______ _____ _____    ______ ____

>  <TORSDO>
F 6

$$$$
