BGC
 OpenBabel09132600403D

 17 17  0  0  1  0  0  0  0  0999 V2000
   47.6220    9.5510   25.7540 C   0  0  2  0  0  3  0  0  0  0  0  0
   48.6660   10.4880   26.3880 C   0  0  2  0  0  3  0  0  0  0  0  0
   49.1340    9.9340   27.7450 C   0  0  1  0  0  3  0  0  0  0  0  0
   47.9460    9.5000   28.6410 C   0  0  2  0  0  3  0  0  0  0  0  0
   46.5010    9.2200   26.7580 C   0  0  1  0  0  3  0  0  0  0  0  0
   46.9970    8.6750   27.9710 O   0  0  0  0  0  0  0  0  0  0  0  0
   45.6820   10.3350   27.0060 O   0  0  0  0  0  0  0  0  0  0  0  0
   45.0460   10.4040   26.2460 H   0  0  0  0  0  0  0  0  0  0  0  0
   48.2330    8.3550   25.3410 O   0  0  0  0  0  0  0  0  0  0  0  0
   48.5820    8.5110   24.4230 H   0  0  0  0  0  0  0  0  0  0  0  0
   48.1340   11.7770   26.5550 O   0  0  0  0  0  0  0  0  0  0  0  0
   48.3680   12.0690   27.4760 H   0  0  0  0  0  0  0  0  0  0  0  0
   49.9730    8.8250   27.5410 O   0  0  0  0  0  0  0  0  0  0  0  0
   50.8940    9.1750   27.4270 H   0  0  0  0  0  0  0  0  0  0  0  0
   47.2940   10.6640   29.4140 C   0  0  0  0  0  2  0  0  0  0  0  0
   48.2470   11.6610   29.6620 O   0  0  0  0  0  0  0  0  0  0  0  0
   48.0220   12.4150   29.0570 H   0  0  0  0  0  0  0  0  0  0  0  0
  1  9  1  1  0  0  0
  1  2  1  0  0  0  0
  1  5  1  0  0  0  0
  2 11  1  1  0  0  0
  2  3  1  0  0  0  0
  3 13  1  6  0  0  0
  3  4  1  0  0  0  0
  4 15  1  6  0  0  0
  5  7  1  1  0  0  0
  5  6  1  0  0  0  0
  6  4  1  0  0  0  0
  8  7  1  0  0  0  0
 10  9  1  0  0  0  0
 11 12  1  0  0  0  0
 14 13  1  0  0  0  0
 15 16  1  0  0  0  0
 17 16  1  0  0  0  0
M  END
>  <MODEL>
2

>  <REMARK>
 VINA RESULT:    -5.821      1.069      3.568
 INTER + INTRA:          -7.037
 INTER:                  -6.768
 INTRA:                  -0.268
 UNBOUND:                -0.024
  Name = BGC
  6 active torsions:
  status: ('A' for Active; 'I' for Inactive)
    1  A    between atoms: C_1  and  O_8
    2  A    between atoms: C_2  and  O_9
    3  A    between atoms: C_3  and  O_10
    4  A    between atoms: C_4  and  C_5
    5  A    between atoms: C_5  and  O_12
    6  A    between atoms: C_6  and  O_7
                            x       y       z     vdW  Elec       q    Type
                         _______ _______ _______ _____ _____    ______ ____

>  <TORSDO>
F 6

$$$$
