BGC
 OpenBabel09132600403D

 17 17  0  0  1  0  0  0  0  0999 V2000
   46.4890    9.8420   27.8380 C   0  0  2  0  0  3  0  0  0  0  0  0
   47.7740   10.5820   28.2510 C   0  0  2  0  0  3  0  0  0  0  0  0
   48.7820   10.6030   27.0890 C   0  0  1  0  0  3  0  0  0  0  0  0
   48.9550    9.2060   26.4400 C   0  0  2  0  0  3  0  0  0  0  0  0
   46.8200    8.4690   27.2230 C   0  0  1  0  0  3  0  0  0  0  0  0
   47.7230    8.5630   26.1300 O   0  0  0  0  0  0  0  0  0  0  0  0
   47.2970    7.5690   28.1900 O   0  0  0  0  0  0  0  0  0  0  0  0
   47.2020    8.0140   29.0730 H   0  0  0  0  0  0  0  0  0  0  0  0
   45.7740   10.6030   26.8970 O   0  0  0  0  0  0  0  0  0  0  0  0
   45.3830    9.9620   26.2450 H   0  0  0  0  0  0  0  0  0  0  0  0
   48.3540    9.9720   29.3760 O   0  0  0  0  0  0  0  0  0  0  0  0
   48.9970    9.2950   29.0380 H   0  0  0  0  0  0  0  0  0  0  0  0
   48.3510   11.5070   26.1030 O   0  0  0  0  0  0  0  0  0  0  0  0
   48.3380   12.4070   26.5200 H   0  0  0  0  0  0  0  0  0  0  0  0
   49.9410    8.2900   27.1930 C   0  0  0  0  0  2  0  0  0  0  0  0
   50.8970    9.0680   27.8590 O   0  0  0  0  0  0  0  0  0  0  0  0
   51.0800    8.6050   28.7170 H   0  0  0  0  0  0  0  0  0  0  0  0
  1  9  1  6  0  0  0
  1  2  1  0  0  0  0
  2 11  1  1  0  0  0
  3 13  1  6  0  0  0
  3  2  1  0  0  0  0
  4  3  1  0  0  0  0
  4 15  1  1  0  0  0
  5  1  1  0  0  0  0
  5  7  1  1  0  0  0
  6  4  1  0  0  0  0
  6  5  1  0  0  0  0
  7  8  1  0  0  0  0
 10  9  1  0  0  0  0
 12 11  1  0  0  0  0
 13 14  1  0  0  0  0
 15 16  1  0  0  0  0
 16 17  1  0  0  0  0
M  END
>  <MODEL>
10

>  <REMARK>
 VINA RESULT:    -5.300      1.465      2.575
 INTER + INTRA:          -6.408
 INTER:                  -6.137
 INTRA:                  -0.272
 UNBOUND:                -0.024
  Name = BGC
  6 active torsions:
  status: ('A' for Active; 'I' for Inactive)
    1  A    between atoms: C_1  and  O_8
    2  A    between atoms: C_2  and  O_9
    3  A    between atoms: C_3  and  O_10
    4  A    between atoms: C_4  and  C_5
    5  A    between atoms: C_5  and  O_12
    6  A    between atoms: C_6  and  O_7
                            x       y       z     vdW  Elec       q    Type
                         _______ _______ _______ _____ _____    ______ ____

>  <TORSDO>
F 6

$$$$
