BGC
 OpenBabel09132600403D

 17 17  0  0  1  0  0  0  0  0999 V2000
   48.5890   10.6360   26.3710 C   0  0  2  0  0  3  0  0  0  0  0  0
   47.6130    9.5690   25.8450 C   0  0  2  0  0  3  0  0  0  0  0  0
   46.4550    9.3610   26.8380 C   0  0  1  0  0  3  0  0  0  0  0  0
   46.9570    9.1960   28.2950 C   0  0  2  0  0  3  0  0  0  0  0  0
   49.0070   10.3300   27.8220 C   0  0  1  0  0  3  0  0  0  0  0  0
   47.8940   10.1920   28.6930 O   0  0  0  0  0  0  0  0  0  0  0  0
   49.8430    9.2040   27.8950 O   0  0  0  0  0  0  0  0  0  0  0  0
   49.2580    8.4160   28.0450 H   0  0  0  0  0  0  0  0  0  0  0  0
   47.9890   11.9060   26.3260 O   0  0  0  0  0  0  0  0  0  0  0  0
   48.3020   12.4010   27.1290 H   0  0  0  0  0  0  0  0  0  0  0  0
   48.2810    8.3520   25.6300 O   0  0  0  0  0  0  0  0  0  0  0  0
   47.8530    7.9230   24.8420 H   0  0  0  0  0  0  0  0  0  0  0  0
   45.5820   10.4620   26.7840 O   0  0  0  0  0  0  0  0  0  0  0  0
   45.0640   10.4630   27.6310 H   0  0  0  0  0  0  0  0  0  0  0  0
   47.4180    7.7640   28.6340 C   0  0  0  0  0  2  0  0  0  0  0  0
   48.0160    7.7470   29.9010 O   0  0  0  0  0  0  0  0  0  0  0  0
   48.6230    8.5320   29.9300 H   0  0  0  0  0  0  0  0  0  0  0  0
  1  9  1  1  0  0  0
  1  5  1  0  0  0  0
  2 11  1  1  0  0  0
  2  1  1  0  0  0  0
  2  3  1  0  0  0  0
  3 13  1  1  0  0  0
  3  4  1  0  0  0  0
  4 15  1  6  0  0  0
  4  6  1  0  0  0  0
  5  7  1  6  0  0  0
  5  6  1  0  0  0  0
  7  8  1  0  0  0  0
  9 10  1  0  0  0  0
 12 11  1  0  0  0  0
 13 14  1  0  0  0  0
 15 16  1  0  0  0  0
 16 17  1  0  0  0  0
M  END
>  <MODEL>
3

>  <REMARK>
 VINA RESULT:    -5.651      1.290      3.132
 INTER + INTRA:          -6.832
 INTER:                  -6.592
 INTRA:                  -0.240
 UNBOUND:                -0.024
  Name = BGC
  6 active torsions:
  status: ('A' for Active; 'I' for Inactive)
    1  A    between atoms: C_1  and  O_8
    2  A    between atoms: C_2  and  O_9
    3  A    between atoms: C_3  and  O_10
    4  A    between atoms: C_4  and  C_5
    5  A    between atoms: C_5  and  O_12
    6  A    between atoms: C_6  and  O_7
                            x       y       z     vdW  Elec       q    Type
                         _______ _______ _______ _____ _____    ______ ____

>  <TORSDO>
F 6

$$$$
