BGC
 OpenBabel09132600403D

 17 17  0  0  1  0  0  0  0  0999 V2000
   46.4510    7.7520   27.5770 C   0  0  2  0  0  3  0  0  0  0  0  0
   45.9190    8.9800   26.8190 C   0  0  2  0  0  3  0  0  0  0  0  0
   46.8500    9.3350   25.6460 C   0  0  1  0  0  3  0  0  0  0  0  0
   48.3400    9.3650   26.0710 C   0  0  2  0  0  3  0  0  0  0  0  0
   47.9370    7.9330   27.9420 C   0  0  1  0  0  3  0  0  0  0  0  0
   48.7470    8.2180   26.8100 O   0  0  0  0  0  0  0  0  0  0  0  0
   48.1110    8.9070   28.9400 O   0  0  0  0  0  0  0  0  0  0  0  0
   47.7210    8.5400   29.7760 H   0  0  0  0  0  0  0  0  0  0  0  0
   46.3130    6.5970   26.7880 O   0  0  0  0  0  0  0  0  0  0  0  0
   46.9720    5.9350   27.1270 H   0  0  0  0  0  0  0  0  0  0  0  0
   45.7990   10.0800   27.6840 O   0  0  0  0  0  0  0  0  0  0  0  0
   46.7170   10.4310   27.8350 H   0  0  0  0  0  0  0  0  0  0  0  0
   46.6950    8.3930   24.6150 O   0  0  0  0  0  0  0  0  0  0  0  0
   46.9880    8.8310   23.7740 H   0  0  0  0  0  0  0  0  0  0  0  0
   48.7710   10.6910   26.7290 C   0  0  0  0  0  2  0  0  0  0  0  0
   47.9470   11.7320   26.2810 O   0  0  0  0  0  0  0  0  0  0  0  0
   47.5320   12.1240   27.0930 H   0  0  0  0  0  0  0  0  0  0  0  0
  1  9  1  6  0  0  0
  1  5  1  0  0  0  0
  2  1  1  0  0  0  0
  2 11  1  1  0  0  0
  3 13  1  6  0  0  0
  3  4  1  0  0  0  0
  3  2  1  0  0  0  0
  4 15  1  1  0  0  0
  4  6  1  0  0  0  0
  5  7  1  1  0  0  0
  6  5  1  0  0  0  0
  7  8  1  0  0  0  0
  9 10  1  0  0  0  0
 11 12  1  0  0  0  0
 14 13  1  0  0  0  0
 16 15  1  0  0  0  0
 16 17  1  0  0  0  0
M  END
>  <MODEL>
7

>  <REMARK>
 VINA RESULT:    -5.422      1.527      3.370
 INTER + INTRA:          -6.556
 INTER:                  -6.279
 INTRA:                  -0.277
 UNBOUND:                -0.024
  Name = BGC
  6 active torsions:
  status: ('A' for Active; 'I' for Inactive)
    1  A    between atoms: C_1  and  O_8
    2  A    between atoms: C_2  and  O_9
    3  A    between atoms: C_3  and  O_10
    4  A    between atoms: C_4  and  C_5
    5  A    between atoms: C_5  and  O_12
    6  A    between atoms: C_6  and  O_7
                            x       y       z     vdW  Elec       q    Type
                         _______ _______ _______ _____ _____    ______ ____

>  <TORSDO>
F 6

$$$$
