BGC
 OpenBabel09132600403D

 17 17  0  0  1  0  0  0  0  0999 V2000
   46.1640    9.5080   26.4850 C   0  0  2  0  0  3  0  0  0  0  0  0
   46.1600    8.3770   27.5280 C   0  0  2  0  0  3  0  0  0  0  0  0
   47.6000    8.0030   27.9240 C   0  0  1  0  0  3  0  0  0  0  0  0
   48.5150    7.8130   26.6870 C   0  0  2  0  0  3  0  0  0  0  0  0
   47.1070    9.1700   25.3130 C   0  0  1  0  0  3  0  0  0  0  0  0
   48.4280    8.8760   25.7430 O   0  0  0  0  0  0  0  0  0  0  0  0
   46.5950    8.1320   24.5190 O   0  0  0  0  0  0  0  0  0  0  0  0
   47.2260    8.0050   23.7630 H   0  0  0  0  0  0  0  0  0  0  0  0
   46.5840   10.7120   27.0760 O   0  0  0  0  0  0  0  0  0  0  0  0
   45.8730   11.3830   26.8990 H   0  0  0  0  0  0  0  0  0  0  0  0
   45.4930    7.2470   27.0290 O   0  0  0  0  0  0  0  0  0  0  0  0
   45.4710    7.3380   26.0400 H   0  0  0  0  0  0  0  0  0  0  0  0
   48.1460    9.0110   28.7370 O   0  0  0  0  0  0  0  0  0  0  0  0
   48.7800    9.5260   28.1740 H   0  0  0  0  0  0  0  0  0  0  0  0
   48.4000    6.4190   26.0390 C   0  0  0  0  0  2  0  0  0  0  0  0
   49.2120    6.3590   24.8990 O   0  0  0  0  0  0  0  0  0  0  0  0
   48.6500    6.6710   24.1420 H   0  0  0  0  0  0  0  0  0  0  0  0
  1  9  1  1  0  0  0
  1  2  1  0  0  0  0
  2 11  1  6  0  0  0
  2  3  1  0  0  0  0
  3 13  1  1  0  0  0
  4 15  1  6  0  0  0
  4  3  1  0  0  0  0
  5  7  1  1  0  0  0
  5  6  1  0  0  0  0
  5  1  1  0  0  0  0
  6  4  1  0  0  0  0
  8  7  1  0  0  0  0
 10  9  1  0  0  0  0
 12 11  1  0  0  0  0
 14 13  1  0  0  0  0
 16 15  1  0  0  0  0
 17 16  1  0  0  0  0
M  END
>  <MODEL>
13

>  <REMARK>
 VINA RESULT:    -5.212      1.889      3.246
 INTER + INTRA:          -6.302
 INTER:                  -6.083
 INTRA:                  -0.219
 UNBOUND:                -0.024
  Name = BGC
  6 active torsions:
  status: ('A' for Active; 'I' for Inactive)
    1  A    between atoms: C_1  and  O_8
    2  A    between atoms: C_2  and  O_9
    3  A    between atoms: C_3  and  O_10
    4  A    between atoms: C_4  and  C_5
    5  A    between atoms: C_5  and  O_12
    6  A    between atoms: C_6  and  O_7
                            x       y       z     vdW  Elec       q    Type
                         _______ _______ _______ _____ _____    ______ ____

>  <TORSDO>
F 6

$$$$
