BGC
 OpenBabel09132600403D

 17 17  0  0  1  0  0  0  0  0999 V2000
   48.3040    8.1790   27.1520 C   0  0  2  0  0  3  0  0  0  0  0  0
   47.9080    9.0640   25.9580 C   0  0  2  0  0  3  0  0  0  0  0  0
   46.7080    9.9570   26.3230 C   0  0  1  0  0  3  0  0  0  0  0  0
   45.5730    9.1580   27.0120 C   0  0  2  0  0  3  0  0  0  0  0  0
   47.0770    7.4410   27.7200 C   0  0  1  0  0  3  0  0  0  0  0  0
   46.0240    8.3260   28.0760 O   0  0  0  0  0  0  0  0  0  0  0  0
   46.6200    6.4440   26.8430 O   0  0  0  0  0  0  0  0  0  0  0  0
   46.2620    6.9050   26.0390 H   0  0  0  0  0  0  0  0  0  0  0  0
   48.8760    8.9640   28.1680 O   0  0  0  0  0  0  0  0  0  0  0  0
   48.4690    9.8680   28.0980 H   0  0  0  0  0  0  0  0  0  0  0  0
   47.5910    8.2730   24.8410 O   0  0  0  0  0  0  0  0  0  0  0  0
   48.4440    8.0940   24.3630 H   0  0  0  0  0  0  0  0  0  0  0  0
   47.1270   10.9820   27.1890 O   0  0  0  0  0  0  0  0  0  0  0  0
   46.6290   10.8660   28.0390 H   0  0  0  0  0  0  0  0  0  0  0  0
   44.6430    8.4250   26.0250 C   0  0  0  0  0  2  0  0  0  0  0  0
   44.5880    9.1290   24.8140 O   0  0  0  0  0  0  0  0  0  0  0  0
   45.4930    9.0590   24.4130 H   0  0  0  0  0  0  0  0  0  0  0  0
  1  5  1  0  0  0  0
  1  9  1  1  0  0  0
  2 11  1  6  0  0  0
  2  3  1  0  0  0  0
  2  1  1  0  0  0  0
  3  4  1  0  0  0  0
  3 13  1  1  0  0  0
  4 15  1  6  0  0  0
  4  6  1  0  0  0  0
  5  7  1  6  0  0  0
  5  6  1  0  0  0  0
  8  7  1  0  0  0  0
 10  9  1  0  0  0  0
 12 11  1  0  0  0  0
 13 14  1  0  0  0  0
 16 15  1  0  0  0  0
 17 16  1  0  0  0  0
M  END
>  <MODEL>
16

>  <REMARK>
 VINA RESULT:    -5.026      1.627      2.343
 INTER + INTRA:          -6.079
 INTER:                  -5.814
 INTRA:                  -0.265
 UNBOUND:                -0.024
  Name = BGC
  6 active torsions:
  status: ('A' for Active; 'I' for Inactive)
    1  A    between atoms: C_1  and  O_8
    2  A    between atoms: C_2  and  O_9
    3  A    between atoms: C_3  and  O_10
    4  A    between atoms: C_4  and  C_5
    5  A    between atoms: C_5  and  O_12
    6  A    between atoms: C_6  and  O_7
                            x       y       z     vdW  Elec       q    Type
                         _______ _______ _______ _____ _____    ______ ____

>  <TORSDO>
F 6

$$$$
