BGC
 OpenBabel09132600403D

 17 17  0  0  1  0  0  0  0  0999 V2000
   48.0650   10.6530   28.2540 C   0  0  2  0  0  3  0  0  0  0  0  0
   48.0400    9.1780   28.6890 C   0  0  2  0  0  3  0  0  0  0  0  0
   48.7630    8.2980   27.6530 C   0  0  1  0  0  3  0  0  0  0  0  0
   48.3110    8.6090   26.2040 C   0  0  2  0  0  3  0  0  0  0  0  0
   47.5780   10.8050   26.7990 C   0  0  1  0  0  3  0  0  0  0  0  0
   48.3140    9.9990   25.8910 O   0  0  0  0  0  0  0  0  0  0  0  0
   46.2000   10.5590   26.6860 O   0  0  0  0  0  0  0  0  0  0  0  0
   46.0870    9.8400   26.0100 H   0  0  0  0  0  0  0  0  0  0  0  0
   49.3690   11.1670   28.3550 O   0  0  0  0  0  0  0  0  0  0  0  0
   49.3720   12.0420   27.8830 H   0  0  0  0  0  0  0  0  0  0  0  0
   46.7170    8.7340   28.8520 O   0  0  0  0  0  0  0  0  0  0  0  0
   46.2400    9.4330   29.3730 H   0  0  0  0  0  0  0  0  0  0  0  0
   50.1510    8.5010   27.7450 O   0  0  0  0  0  0  0  0  0  0  0  0
   50.5820    7.8400   27.1440 H   0  0  0  0  0  0  0  0  0  0  0  0
   47.0040    7.9010   25.7960 C   0  0  0  0  0  2  0  0  0  0  0  0
   46.6210    8.3160   24.5140 O   0  0  0  0  0  0  0  0  0  0  0  0
   45.6920    7.9900   24.3840 H   0  0  0  0  0  0  0  0  0  0  0  0
  1  9  1  6  0  0  0
  1  2  1  0  0  0  0
  2 11  1  6  0  0  0
  3 13  1  6  0  0  0
  3  2  1  0  0  0  0
  4 15  1  1  0  0  0
  4  3  1  0  0  0  0
  5  7  1  1  0  0  0
  5  1  1  0  0  0  0
  6  4  1  0  0  0  0
  6  5  1  0  0  0  0
  8  7  1  0  0  0  0
 10  9  1  0  0  0  0
 11 12  1  0  0  0  0
 14 13  1  0  0  0  0
 16 15  1  0  0  0  0
 17 16  1  0  0  0  0
M  END
>  <MODEL>
4

>  <REMARK>
 VINA RESULT:    -5.611      1.310      2.387
 INTER + INTRA:          -6.783
 INTER:                  -6.554
 INTRA:                  -0.229
 UNBOUND:                -0.024
  Name = BGC
  6 active torsions:
  status: ('A' for Active; 'I' for Inactive)
    1  A    between atoms: C_1  and  O_8
    2  A    between atoms: C_2  and  O_9
    3  A    between atoms: C_3  and  O_10
    4  A    between atoms: C_4  and  C_5
    5  A    between atoms: C_5  and  O_12
    6  A    between atoms: C_6  and  O_7
                            x       y       z     vdW  Elec       q    Type
                         _______ _______ _______ _____ _____    ______ ____

>  <TORSDO>
F 6

$$$$
