BGC
 OpenBabel09132600403D

 17 17  0  0  1  0  0  0  0  0999 V2000
   47.7540   10.5660   28.4740 C   0  0  2  0  0  3  0  0  0  0  0  0
   46.4730    9.9370   27.9020 C   0  0  2  0  0  3  0  0  0  0  0  0
   46.7400    8.4940   27.4380 C   0  0  1  0  0  3  0  0  0  0  0  0
   48.0210    8.3860   26.5730 C   0  0  2  0  0  3  0  0  0  0  0  0
   48.9350   10.3910   27.4990 C   0  0  1  0  0  3  0  0  0  0  0  0
   49.1540    9.0330   27.1450 O   0  0  0  0  0  0  0  0  0  0  0  0
   48.7840   11.1900   26.3540 O   0  0  0  0  0  0  0  0  0  0  0  0
   49.1540   12.0850   26.5730 H   0  0  0  0  0  0  0  0  0  0  0  0
   48.0830    9.9640   29.7010 O   0  0  0  0  0  0  0  0  0  0  0  0
   47.2540    9.5350   30.0430 H   0  0  0  0  0  0  0  0  0  0  0  0
   45.9850   10.7010   26.8280 O   0  0  0  0  0  0  0  0  0  0  0  0
   46.7770   11.0570   26.3440 H   0  0  0  0  0  0  0  0  0  0  0  0
   46.8800    7.6550   28.5570 O   0  0  0  0  0  0  0  0  0  0  0  0
   46.7650    8.2230   29.3620 H   0  0  0  0  0  0  0  0  0  0  0  0
   47.8020    8.7520   25.0910 C   0  0  0  0  0  2  0  0  0  0  0  0
   46.5380    8.3120   24.6770 O   0  0  0  0  0  0  0  0  0  0  0  0
   46.6760    7.8570   23.8050 H   0  0  0  0  0  0  0  0  0  0  0  0
  1  9  1  1  0  0  0
  2 11  1  6  0  0  0
  2  1  1  0  0  0  0
  3  2  1  0  0  0  0
  3 13  1  1  0  0  0
  4 15  1  6  0  0  0
  4  6  1  0  0  0  0
  4  3  1  0  0  0  0
  5  7  1  6  0  0  0
  5  1  1  0  0  0  0
  6  5  1  0  0  0  0
  7  8  1  0  0  0  0
  9 10  1  0  0  0  0
 12 11  1  0  0  0  0
 13 14  1  0  0  0  0
 16 15  1  0  0  0  0
 17 16  1  0  0  0  0
M  END
>  <MODEL>
5

>  <REMARK>
 VINA RESULT:    -5.530      1.126      2.892
 INTER + INTRA:          -6.686
 INTER:                  -6.481
 INTRA:                  -0.205
 UNBOUND:                -0.024
  Name = BGC
  6 active torsions:
  status: ('A' for Active; 'I' for Inactive)
    1  A    between atoms: C_1  and  O_8
    2  A    between atoms: C_2  and  O_9
    3  A    between atoms: C_3  and  O_10
    4  A    between atoms: C_4  and  C_5
    5  A    between atoms: C_5  and  O_12
    6  A    between atoms: C_6  and  O_7
                            x       y       z     vdW  Elec       q    Type
                         _______ _______ _______ _____ _____    ______ ____

>  <TORSDO>
F 6

$$$$
