BGC
 OpenBabel09132600403D

 17 17  0  0  1  0  0  0  0  0999 V2000
   48.7370   10.0410   28.0880 C   0  0  2  0  0  3  0  0  0  0  0  0
   47.6090    9.7660   29.0970 C   0  0  2  0  0  3  0  0  0  0  0  0
   46.7020    8.6270   28.5960 C   0  0  1  0  0  3  0  0  0  0  0  0
   46.2870    8.8200   27.1150 C   0  0  2  0  0  3  0  0  0  0  0  0
   48.1700   10.2220   26.6660 C   0  0  1  0  0  3  0  0  0  0  0  0
   47.3780    9.1190   26.2500 O   0  0  0  0  0  0  0  0  0  0  0  0
   47.4580   11.4260   26.5420 O   0  0  0  0  0  0  0  0  0  0  0  0
   46.8940   11.5160   27.3550 H   0  0  0  0  0  0  0  0  0  0  0  0
   49.6530    8.9750   28.0810 O   0  0  0  0  0  0  0  0  0  0  0  0
   49.2110    8.2180   27.6130 H   0  0  0  0  0  0  0  0  0  0  0  0
   46.8450   10.9250   29.3120 O   0  0  0  0  0  0  0  0  0  0  0  0
   46.9190   11.4770   28.4880 H   0  0  0  0  0  0  0  0  0  0  0  0
   47.3730    7.3980   28.7190 O   0  0  0  0  0  0  0  0  0  0  0  0
   46.9110    6.8860   29.4330 H   0  0  0  0  0  0  0  0  0  0  0  0
   45.0880    9.7700   26.9250 C   0  0  0  0  0  2  0  0  0  0  0  0
   44.7920    9.8920   25.5610 O   0  0  0  0  0  0  0  0  0  0  0  0
   44.1980    9.1290   25.3390 H   0  0  0  0  0  0  0  0  0  0  0  0
  1  9  1  6  0  0  0
  1  2  1  0  0  0  0
  2 11  1  6  0  0  0
  3 13  1  6  0  0  0
  3  2  1  0  0  0  0
  4 15  1  1  0  0  0
  4  3  1  0  0  0  0
  5  7  1  1  0  0  0
  5  1  1  0  0  0  0
  6  5  1  0  0  0  0
  6  4  1  0  0  0  0
  7  8  1  0  0  0  0
 10  9  1  0  0  0  0
 12 11  1  0  0  0  0
 13 14  1  0  0  0  0
 16 15  1  0  0  0  0
 17 16  1  0  0  0  0
M  END
>  <MODEL>
9

>  <REMARK>
 VINA RESULT:    -5.310      1.201      2.995
 INTER + INTRA:          -6.421
 INTER:                  -6.220
 INTRA:                  -0.201
 UNBOUND:                -0.024
  Name = BGC
  6 active torsions:
  status: ('A' for Active; 'I' for Inactive)
    1  A    between atoms: C_1  and  O_8
    2  A    between atoms: C_2  and  O_9
    3  A    between atoms: C_3  and  O_10
    4  A    between atoms: C_4  and  C_5
    5  A    between atoms: C_5  and  O_12
    6  A    between atoms: C_6  and  O_7
                            x       y       z     vdW  Elec       q    Type
                         _______ _______ _______ _____ _____    ______ ____

>  <TORSDO>
F 6

$$$$
