BGC
 OpenBabel09132600403D

 17 17  0  0  1  0  0  0  0  0999 V2000
   49.2840   10.3810   26.9520 C   0  0  2  0  0  3  0  0  0  0  0  0
   47.8980   10.9240   27.3440 C   0  0  2  0  0  3  0  0  0  0  0  0
   47.5030   10.4310   28.7470 C   0  0  1  0  0  3  0  0  0  0  0  0
   47.7340    8.9080   28.9190 C   0  0  2  0  0  3  0  0  0  0  0  0
   49.3560    8.8560   27.1650 C   0  0  1  0  0  3  0  0  0  0  0  0
   49.0210    8.4740   28.4910 O   0  0  0  0  0  0  0  0  0  0  0  0
   48.5700    8.1640   26.2290 O   0  0  0  0  0  0  0  0  0  0  0  0
   48.3370    7.2890   26.6350 H   0  0  0  0  0  0  0  0  0  0  0  0
   50.2820   10.9980   27.7250 O   0  0  0  0  0  0  0  0  0  0  0  0
   49.8800   11.1940   28.6130 H   0  0  0  0  0  0  0  0  0  0  0  0
   46.9300   10.5250   26.4070 O   0  0  0  0  0  0  0  0  0  0  0  0
   46.8530   11.2580   25.7410 H   0  0  0  0  0  0  0  0  0  0  0  0
   48.2560   11.1130   29.7180 O   0  0  0  0  0  0  0  0  0  0  0  0
   47.8460   10.9110   30.5990 H   0  0  0  0  0  0  0  0  0  0  0  0
   46.5870    8.0400   28.3630 C   0  0  0  0  0  2  0  0  0  0  0  0
   45.4070    8.7940   28.3070 O   0  0  0  0  0  0  0  0  0  0  0  0
   44.7690    8.3530   28.9270 H   0  0  0  0  0  0  0  0  0  0  0  0
  1  5  1  0  0  0  0
  1  2  1  0  0  0  0
  1  9  1  1  0  0  0
  2 11  1  6  0  0  0
  2  3  1  0  0  0  0
  3  4  1  0  0  0  0
  3 13  1  1  0  0  0
  4 15  1  6  0  0  0
  5  7  1  6  0  0  0
  5  6  1  0  0  0  0
  6  4  1  0  0  0  0
  7  8  1  0  0  0  0
  9 10  1  0  0  0  0
 12 11  1  0  0  0  0
 13 14  1  0  0  0  0
 16 15  1  0  0  0  0
 16 17  1  0  0  0  0
M  END
>  <MODEL>
6

>  <REMARK>
 VINA RESULT:    -5.443      1.588      3.090
 INTER + INTRA:          -6.581
 INTER:                  -6.304
 INTRA:                  -0.277
 UNBOUND:                -0.024
  Name = BGC
  6 active torsions:
  status: ('A' for Active; 'I' for Inactive)
    1  A    between atoms: C_1  and  O_8
    2  A    between atoms: C_2  and  O_9
    3  A    between atoms: C_3  and  O_10
    4  A    between atoms: C_4  and  C_5
    5  A    between atoms: C_5  and  O_12
    6  A    between atoms: C_6  and  O_7
                            x       y       z     vdW  Elec       q    Type
                         _______ _______ _______ _____ _____    ______ ____

>  <TORSDO>
F 6

$$$$
