BGC
 OpenBabel09132600403D

 17 17  0  0  1  0  0  0  0  0999 V2000
   48.6440    8.3190   26.7710 C   0  0  2  0  0  3  0  0  0  0  0  0
   47.5810    7.6870   27.6850 C   0  0  2  0  0  3  0  0  0  0  0  0
   46.5840    6.8540   26.8590 C   0  0  1  0  0  3  0  0  0  0  0  0
   46.0710    7.6220   25.6140 C   0  0  2  0  0  3  0  0  0  0  0  0
   47.9830    9.0570   25.5890 C   0  0  1  0  0  3  0  0  0  0  0  0
   47.1090    8.2210   24.8440 O   0  0  0  0  0  0  0  0  0  0  0  0
   47.3240   10.2230   26.0100 O   0  0  0  0  0  0  0  0  0  0  0  0
   47.1090   10.1050   26.9720 H   0  0  0  0  0  0  0  0  0  0  0  0
   49.5020    7.3270   26.2670 O   0  0  0  0  0  0  0  0  0  0  0  0
   49.6710    7.5490   25.3130 H   0  0  0  0  0  0  0  0  0  0  0  0
   46.8930    8.6800   28.4030 O   0  0  0  0  0  0  0  0  0  0  0  0
   47.5120    9.0070   29.1080 H   0  0  0  0  0  0  0  0  0  0  0  0
   47.2000    5.6650   26.4320 O   0  0  0  0  0  0  0  0  0  0  0  0
   48.1650    5.7420   26.6520 H   0  0  0  0  0  0  0  0  0  0  0  0
   44.9100    8.5900   25.9180 C   0  0  0  0  0  2  0  0  0  0  0  0
   44.6230    9.3570   24.7810 O   0  0  0  0  0  0  0  0  0  0  0  0
   44.8370    8.7830   24.0000 H   0  0  0  0  0  0  0  0  0  0  0  0
  1  9  1  6  0  0  0
  1  2  1  0  0  0  0
  2 11  1  6  0  0  0
  3 13  1  6  0  0  0
  3  2  1  0  0  0  0
  4 15  1  1  0  0  0
  4  3  1  0  0  0  0
  5  7  1  1  0  0  0
  5  1  1  0  0  0  0
  6  5  1  0  0  0  0
  6  4  1  0  0  0  0
  7  8  1  0  0  0  0
 10  9  1  0  0  0  0
 11 12  1  0  0  0  0
 13 14  1  0  0  0  0
 16 15  1  0  0  0  0
 17 16  1  0  0  0  0
M  END
>  <MODEL>
20

>  <REMARK>
 VINA RESULT:    -4.818      1.975      3.627
 INTER + INTRA:          -5.828
 INTER:                  -5.589
 INTRA:                  -0.239
 UNBOUND:                -0.024
  Name = BGC
  6 active torsions:
  status: ('A' for Active; 'I' for Inactive)
    1  A    between atoms: C_1  and  O_8
    2  A    between atoms: C_2  and  O_9
    3  A    between atoms: C_3  and  O_10
    4  A    between atoms: C_4  and  C_5
    5  A    between atoms: C_5  and  O_12
    6  A    between atoms: C_6  and  O_7
                            x       y       z     vdW  Elec       q    Type
                         _______ _______ _______ _____ _____    ______ ____

>  <TORSDO>
F 6

$$$$
