BGC
 OpenBabel09132600403D

 17 17  0  0  1  0  0  0  0  0999 V2000
   47.1180    7.9790   25.6160 C   0  0  2  0  0  3  0  0  0  0  0  0
   46.1810    8.1320   26.8270 C   0  0  2  0  0  3  0  0  0  0  0  0
   45.9180    9.6190   27.1230 C   0  0  1  0  0  3  0  0  0  0  0  0
   47.2260   10.4510   27.1390 C   0  0  2  0  0  3  0  0  0  0  0  0
   48.3760    8.8540   25.7830 C   0  0  1  0  0  3  0  0  0  0  0  0
   48.0650   10.2200   26.0120 O   0  0  0  0  0  0  0  0  0  0  0  0
   49.2230    8.3570   26.7880 O   0  0  0  0  0  0  0  0  0  0  0  0
   48.8100    8.5950   27.6600 H   0  0  0  0  0  0  0  0  0  0  0  0
   46.4530    8.3570   24.4380 O   0  0  0  0  0  0  0  0  0  0  0  0
   46.1470    7.5190   23.9980 H   0  0  0  0  0  0  0  0  0  0  0  0
   46.7320    7.5090   27.9590 O   0  0  0  0  0  0  0  0  0  0  0  0
   46.2130    7.8260   28.7450 H   0  0  0  0  0  0  0  0  0  0  0  0
   45.0590   10.1520   26.1470 O   0  0  0  0  0  0  0  0  0  0  0  0
   45.4370    9.9090   25.2620 H   0  0  0  0  0  0  0  0  0  0  0  0
   47.9860   10.3850   28.4790 C   0  0  0  0  0  2  0  0  0  0  0  0
   48.7160   11.5660   28.6680 O   0  0  0  0  0  0  0  0  0  0  0  0
   49.3560   11.6190   27.9110 H   0  0  0  0  0  0  0  0  0  0  0  0
  1  9  1  6  0  0  0
  1  5  1  0  0  0  0
  1  2  1  0  0  0  0
  2  3  1  0  0  0  0
  2 11  1  1  0  0  0
  3 13  1  6  0  0  0
  3  4  1  0  0  0  0
  4 15  1  1  0  0  0
  5  6  1  0  0  0  0
  5  7  1  1  0  0  0
  6  4  1  0  0  0  0
  7  8  1  0  0  0  0
 10  9  1  0  0  0  0
 11 12  1  0  0  0  0
 14 13  1  0  0  0  0
 15 16  1  0  0  0  0
 17 16  1  0  0  0  0
M  END
>  <MODEL>
11

>  <REMARK>
 VINA RESULT:    -5.259      1.216      3.725
 INTER + INTRA:          -6.360
 INTER:                  -6.301
 INTRA:                  -0.058
 UNBOUND:                -0.024
  Name = BGC
  6 active torsions:
  status: ('A' for Active; 'I' for Inactive)
    1  A    between atoms: C_1  and  O_8
    2  A    between atoms: C_2  and  O_9
    3  A    between atoms: C_3  and  O_10
    4  A    between atoms: C_4  and  C_5
    5  A    between atoms: C_5  and  O_12
    6  A    between atoms: C_6  and  O_7
                            x       y       z     vdW  Elec       q    Type
                         _______ _______ _______ _____ _____    ______ ____

>  <TORSDO>
F 6

$$$$
