BGC
 OpenBabel09132600403D

 17 17  0  0  1  0  0  0  0  0999 V2000
   46.4750    9.1490   25.3100 C   0  0  2  0  0  3  0  0  0  0  0  0
   47.2740    9.6480   26.5270 C   0  0  2  0  0  3  0  0  0  0  0  0
   47.0580    8.7170   27.7330 C   0  0  1  0  0  3  0  0  0  0  0  0
   45.5590    8.3950   27.9620 C   0  0  2  0  0  3  0  0  0  0  0  0
   45.0050    8.8850   25.6890 C   0  0  1  0  0  3  0  0  0  0  0  0
   44.8760    7.9860   26.7810 O   0  0  0  0  0  0  0  0  0  0  0  0
   44.3120   10.0810   25.9390 O   0  0  0  0  0  0  0  0  0  0  0  0
   44.6960   10.4720   26.7670 H   0  0  0  0  0  0  0  0  0  0  0  0
   47.0390    7.9610   24.8140 O   0  0  0  0  0  0  0  0  0  0  0  0
   48.0170    8.0140   24.9840 H   0  0  0  0  0  0  0  0  0  0  0  0
   46.8950   10.9590   26.8610 O   0  0  0  0  0  0  0  0  0  0  0  0
   47.5160   11.5700   26.3830 H   0  0  0  0  0  0  0  0  0  0  0  0
   47.7520    7.5110   27.5310 O   0  0  0  0  0  0  0  0  0  0  0  0
   48.3420    7.3800   28.3180 H   0  0  0  0  0  0  0  0  0  0  0  0
   44.8040    9.4830   28.7500 C   0  0  0  0  0  2  0  0  0  0  0  0
   45.7050   10.2040   29.5450 O   0  0  0  0  0  0  0  0  0  0  0  0
   45.9010   11.0420   29.0510 H   0  0  0  0  0  0  0  0  0  0  0  0
  1  9  1  1  0  0  0
  1  5  1  0  0  0  0
  1  2  1  0  0  0  0
  2 11  1  1  0  0  0
  2  3  1  0  0  0  0
  3 13  1  6  0  0  0
  3  4  1  0  0  0  0
  4 15  1  6  0  0  0
  5  7  1  1  0  0  0
  5  6  1  0  0  0  0
  6  4  1  0  0  0  0
  7  8  1  0  0  0  0
  9 10  1  0  0  0  0
 12 11  1  0  0  0  0
 13 14  1  0  0  0  0
 15 16  1  0  0  0  0
 17 16  1  0  0  0  0
M  END
>  <MODEL>
14

>  <REMARK>
 VINA RESULT:    -5.068      1.595      3.789
 INTER + INTRA:          -6.129
 INTER:                  -5.850
 INTRA:                  -0.279
 UNBOUND:                -0.024
  Name = BGC
  6 active torsions:
  status: ('A' for Active; 'I' for Inactive)
    1  A    between atoms: C_1  and  O_8
    2  A    between atoms: C_2  and  O_9
    3  A    between atoms: C_3  and  O_10
    4  A    between atoms: C_4  and  C_5
    5  A    between atoms: C_5  and  O_12
    6  A    between atoms: C_6  and  O_7
                            x       y       z     vdW  Elec       q    Type
                         _______ _______ _______ _____ _____    ______ ____

>  <TORSDO>
F 6

$$$$
