BGC
 OpenBabel09132600403D

 17 17  0  0  1  0  0  0  0  0999 V2000
   46.8780   10.1290   27.1500 C   0  0  2  0  0  3  0  0  0  0  0  0
   47.9290    9.8860   26.0530 C   0  0  2  0  0  3  0  0  0  0  0  0
   47.7130    8.5120   25.3930 C   0  0  1  0  0  3  0  0  0  0  0  0
   47.5180    7.3860   26.4400 C   0  0  2  0  0  3  0  0  0  0  0  0
   46.8080    8.9330   28.1180 C   0  0  1  0  0  3  0  0  0  0  0  0
   46.5660    7.7030   27.4500 O   0  0  0  0  0  0  0  0  0  0  0  0
   47.9580    8.8490   28.9220 O   0  0  0  0  0  0  0  0  0  0  0  0
   48.1610    9.7690   29.2350 H   0  0  0  0  0  0  0  0  0  0  0  0
   45.6120   10.3240   26.5730 O   0  0  0  0  0  0  0  0  0  0  0  0
   45.7020   11.0710   25.9230 H   0  0  0  0  0  0  0  0  0  0  0  0
   49.2260    9.9610   26.5870 O   0  0  0  0  0  0  0  0  0  0  0  0
   49.2690   10.7940   27.1270 H   0  0  0  0  0  0  0  0  0  0  0  0
   46.5790    8.5570   24.5640 O   0  0  0  0  0  0  0  0  0  0  0  0
   46.7060    9.3180   23.9400 H   0  0  0  0  0  0  0  0  0  0  0  0
   48.8390    6.8320   27.0090 C   0  0  0  0  0  2  0  0  0  0  0  0
   49.8710    7.0180   26.0790 O   0  0  0  0  0  0  0  0  0  0  0  0
   49.7340    6.3340   25.3740 H   0  0  0  0  0  0  0  0  0  0  0  0
  1  9  1  6  0  0  0
  1  5  1  0  0  0  0
  2 11  1  1  0  0  0
  2  1  1  0  0  0  0
  3 13  1  6  0  0  0
  3  2  1  0  0  0  0
  3  4  1  0  0  0  0
  4 15  1  1  0  0  0
  4  6  1  0  0  0  0
  5  7  1  6  0  0  0
  6  5  1  0  0  0  0
  7  8  1  0  0  0  0
 10  9  1  0  0  0  0
 11 12  1  0  0  0  0
 14 13  1  0  0  0  0
 16 15  1  0  0  0  0
 17 16  1  0  0  0  0
M  END
>  <MODEL>
17

>  <REMARK>
 VINA RESULT:    -4.985      1.548      2.699
 INTER + INTRA:          -6.029
 INTER:                  -5.752
 INTRA:                  -0.276
 UNBOUND:                -0.024
  Name = BGC
  6 active torsions:
  status: ('A' for Active; 'I' for Inactive)
    1  A    between atoms: C_1  and  O_8
    2  A    between atoms: C_2  and  O_9
    3  A    between atoms: C_3  and  O_10
    4  A    between atoms: C_4  and  C_5
    5  A    between atoms: C_5  and  O_12
    6  A    between atoms: C_6  and  O_7
                            x       y       z     vdW  Elec       q    Type
                         _______ _______ _______ _____ _____    ______ ____

>  <TORSDO>
F 6

$$$$
