A0B0 MOLDISC-011-JE2-286E6F2BE8
     RDKit          2D

 39 42  0  0  0  0  0  0  0  0999 V2000
   -3.8132   -4.2634    0.0000 C   0  0  0  0  0  0  0  0  0  0  0  0
   -2.8409   -3.1212    0.0000 C   0  0  0  0  0  0  0  0  0  0  0  0
   -4.0784   -2.2736    0.0000 C   0  0  0  0  0  0  0  0  0  0  0  0
   -1.8066   -4.2076    0.0000 S   0  0  0  0  0  0  0  0  0  0  0  0
   -0.4538   -3.5597    0.0000 C   0  0  0  0  0  0  0  0  0  0  0  0
   -0.6519   -2.0728    0.0000 N   0  0  0  0  0  0  0  0  0  0  0  0
    0.4345   -1.0386    0.0000 C   0  0  0  0  0  0  0  0  0  0  0  0
    0.0820    0.4194    0.0000 O   0  0  0  0  0  0  0  0  0  0  0  0
    1.8734   -1.4623    0.0000 C   0  0  0  0  0  0  0  0  0  0  0  0
    2.2259   -2.9203    0.0000 O   0  0  0  0  0  0  0  0  0  0  0  0
    2.9598   -0.4280    0.0000 C   0  0  0  0  0  0  0  0  0  0  0  0
    4.3987   -0.8517    0.0000 C   0  0  0  0  0  0  0  0  0  0  0  0
    4.7512   -2.3097    0.0000 C   0  0  0  0  0  0  0  0  0  0  0  0
    6.1901   -2.7334    0.0000 C   0  0  0  0  0  0  0  0  0  0  0  0
    6.5426   -4.1914    0.0000 C   0  0  0  0  0  0  0  0  0  0  0  0
    5.4562   -5.2257    0.0000 C   0  0  0  0  0  0  0  0  0  0  0  0
    4.0173   -4.8020    0.0000 C   0  0  0  0  0  0  0  0  0  0  0  0
    3.6648   -3.3440    0.0000 C   0  0  0  0  0  0  0  0  0  0  0  0
    2.6073    1.0300    0.0000 N   0  0  0  0  0  0  0  0  0  0  0  0
    3.6937    2.0642    0.0000 C   0  0  0  0  0  0  0  0  0  0  0  0
    5.1326    1.6405    0.0000 O   0  0  0  0  0  0  0  0  0  0  0  0
    3.3412    3.5222    0.0000 C   0  0  0  0  0  0  0  0  0  0  0  0
    1.9023    3.9460    0.0000 C   0  0  0  0  0  0  0  0  0  0  0  0
    1.5498    5.4040    0.0000 C   0  0  0  0  0  0  0  0  0  0  0  0
    2.6362    6.4382    0.0000 C   0  0  0  0  0  0  0  0  0  0  0  0
    4.0751    6.0145    0.0000 C   0  0  0  0  0  0  0  0  0  0  0  0
    5.1615    7.0488    0.0000 O   0  0  0  0  0  0  0  0  0  0  0  0
    4.4276    4.5565    0.0000 C   0  0  0  0  0  0  0  0  0  0  0  0
   -2.1273   -1.8019    0.0000 C   0  0  0  0  0  0  0  0  0  0  0  0
   -2.7752   -0.4490    0.0000 C   0  0  0  0  0  0  0  0  0  0  0  0
   -1.9276    0.7885    0.0000 O   0  0  0  0  0  0  0  0  0  0  0  0
   -4.2708   -0.3337    0.0000 N   0  0  0  0  0  0  0  0  0  0  0  0
   -4.9187    1.0191    0.0000 C   0  0  0  0  0  0  0  0  0  0  0  0
   -6.4143    1.1344    0.0000 C   0  0  0  0  0  0  0  0  0  0  0  0
   -7.0622    2.4873    0.0000 C   0  0  0  0  0  0  0  0  0  0  0  0
   -8.5578    2.6025    0.0000 C   0  0  0  0  0  0  0  0  0  0  0  0
   -9.4054    1.3650    0.0000 C   0  0  0  0  0  0  0  0  0  0  0  0
   -8.7574    0.0122    0.0000 C   0  0  0  0  0  0  0  0  0  0  0  0
   -7.2619   -0.1031    0.0000 C   0  0  0  0  0  0  0  0  0  0  0  0
  1  2  1  0
  2  3  1  0
  2  4  1  0
  4  5  1  0
  5  6  1  0
  6  7  1  0
  7  8  2  0
  7  9  1  0
  9 10  1  6
  9 11  1  0
 11 12  1  1
 12 13  1  0
 13 14  2  0
 14 15  1  0
 15 16  2  0
 16 17  1  0
 17 18  2  0
 11 19  1  0
 19 20  1  0
 20 21  2  0
 20 22  1  0
 22 23  2  0
 23 24  1  0
 24 25  2  0
 25 26  1  0
 26 27  1  0
 26 28  2  0
  6 29  1  0
 29 30  1  1
 30 31  2  0
 30 32  1  0
 32 33  1  0
 33 34  1  0
 34 35  2  0
 35 36  1  0
 36 37  2  0
 37 38  1  0
 38 39  2  0
 29  2  1  0
 39 34  1  0
 18 13  1  0
 28 22  1  0
M  END
>  <PANEL_KEY>  (1)
A0B0

>  <COMPOUND_ID>  (1)
MOLDISC-011-JE2-286E6F2BE8

>  <VARIANT_ID>  (1)
A0B0-CONTROL

>  <FACTOR_A>  (1)
CONTROL

>  <FACTOR_B>  (1)
CONTROL

>  <ISOMERIC_SMILES>  (1)
CC1(C)SCN(C(=O)[C@@H](O)[C@H](Cc2ccccc2)NC(=O)c2cccc(O)c2)[C@@H]1C(=O)NCc1ccccc1

>  <INCHIKEY>  (1)
DRIAWXDDGSORDT-KKUQBAQOSA-N

>  <FORMULA>  (1)
C30H33N3O5S

$$$$
A1B0 MOLDISC-014-SOURCE-DELTA-OH
     RDKit          2D

 38 41  0  0  0  0  0  0  0  0999 V2000
   -3.3168   -4.3762    0.0000 C   0  0  0  0  0  0  0  0  0  0  0  0
   -2.4453   -3.1554    0.0000 C   0  0  0  0  0  0  0  0  0  0  0  0
   -3.7505   -2.4162    0.0000 C   0  0  0  0  0  0  0  0  0  0  0  0
   -1.3223   -4.1498    0.0000 S   0  0  0  0  0  0  0  0  0  0  0  0
   -0.0295   -3.3890    0.0000 C   0  0  0  0  0  0  0  0  0  0  0  0
   -0.3535   -1.9244    0.0000 N   0  0  0  0  0  0  0  0  0  0  0  0
    0.6409   -0.8014    0.0000 C   0  0  0  0  0  0  0  0  0  0  0  0
    0.1655    0.6213    0.0000 O   0  0  0  0  0  0  0  0  0  0  0  0
    2.1106   -1.1011    0.0000 C   0  0  0  0  0  0  0  0  0  0  0  0
    2.5860   -2.5238    0.0000 O   0  0  0  0  0  0  0  0  0  0  0  0
    3.1050    0.0219    0.0000 C   0  0  0  0  0  0  0  0  0  0  0  0
    4.5748   -0.2777    0.0000 C   0  0  0  0  0  0  0  0  0  0  0  0
    5.0501   -1.7004    0.0000 C   0  0  0  0  0  0  0  0  0  0  0  0
    6.5199   -2.0001    0.0000 C   0  0  0  0  0  0  0  0  0  0  0  0
    6.9953   -3.4228    0.0000 C   0  0  0  0  0  0  0  0  0  0  0  0
    6.0009   -4.5458    0.0000 C   0  0  0  0  0  0  0  0  0  0  0  0
    4.5311   -4.2461    0.0000 C   0  0  0  0  0  0  0  0  0  0  0  0
    4.0557   -2.8234    0.0000 C   0  0  0  0  0  0  0  0  0  0  0  0
    2.6296    1.4446    0.0000 N   0  0  0  0  0  0  0  0  0  0  0  0
    3.6240    2.5676    0.0000 C   0  0  0  0  0  0  0  0  0  0  0  0
    5.0938    2.2680    0.0000 O   0  0  0  0  0  0  0  0  0  0  0  0
    3.1487    3.9903    0.0000 C   0  0  0  0  0  0  0  0  0  0  0  0
    1.6789    4.2900    0.0000 C   0  0  0  0  0  0  0  0  0  0  0  0
    1.2036    5.7127    0.0000 C   0  0  0  0  0  0  0  0  0  0  0  0
    2.1980    6.8357    0.0000 C   0  0  0  0  0  0  0  0  0  0  0  0
    3.6677    6.5360    0.0000 C   0  0  0  0  0  0  0  0  0  0  0  0
    4.1431    5.1133    0.0000 C   0  0  0  0  0  0  0  0  0  0  0  0
   -1.8466   -1.7801    0.0000 C   0  0  0  0  0  0  0  0  0  0  0  0
   -2.6073   -0.4873    0.0000 C   0  0  0  0  0  0  0  0  0  0  0  0
   -1.8682    0.8179    0.0000 O   0  0  0  0  0  0  0  0  0  0  0  0
   -4.1073   -0.4998    0.0000 N   0  0  0  0  0  0  0  0  0  0  0  0
   -4.8681    0.7930    0.0000 C   0  0  0  0  0  0  0  0  0  0  0  0
   -6.3680    0.7805    0.0000 C   0  0  0  0  0  0  0  0  0  0  0  0
   -7.1288    2.0733    0.0000 C   0  0  0  0  0  0  0  0  0  0  0  0
   -8.6287    2.0608    0.0000 C   0  0  0  0  0  0  0  0  0  0  0  0
   -9.3679    0.7556    0.0000 C   0  0  0  0  0  0  0  0  0  0  0  0
   -8.6071   -0.5372    0.0000 C   0  0  0  0  0  0  0  0  0  0  0  0
   -7.1072   -0.5247    0.0000 C   0  0  0  0  0  0  0  0  0  0  0  0
  1  2  1  0
  2  3  1  0
  2  4  1  0
  4  5  1  0
  5  6  1  0
  6  7  1  0
  7  8  2  0
  7  9  1  0
  9 10  1  6
  9 11  1  0
 11 12  1  1
 12 13  1  0
 13 14  2  0
 14 15  1  0
 15 16  2  0
 16 17  1  0
 17 18  2  0
 11 19  1  0
 19 20  1  0
 20 21  2  0
 20 22  1  0
 22 23  2  0
 23 24  1  0
 24 25  2  0
 25 26  1  0
 26 27  2  0
  6 28  1  0
 28 29  1  1
 29 30  2  0
 29 31  1  0
 31 32  1  0
 32 33  1  0
 33 34  2  0
 34 35  1  0
 35 36  2  0
 36 37  1  0
 37 38  2  0
 28  2  1  0
 38 33  1  0
 18 13  1  0
 27 22  1  0
M  END
>  <PANEL_KEY>  (2)
A1B0

>  <COMPOUND_ID>  (2)
MOLDISC-014-SOURCE-DELTA-OH

>  <VARIANT_ID>  (2)
A1B0-DELTA-OH

>  <FACTOR_A>  (2)
DELTA-OH

>  <FACTOR_B>  (2)
CONTROL

>  <ISOMERIC_SMILES>  (2)
CC1(C)SCN(C(=O)[C@@H](O)[C@H](Cc2ccccc2)NC(=O)c2ccccc2)[C@@H]1C(=O)NCc1ccccc1

>  <INCHIKEY>  (2)
NAZMDUVPQSKJEQ-KKUQBAQOSA-N

>  <FORMULA>  (2)
C30H33N3O4S

$$$$
A0B1 MOLDISC-014-SOURCE-DELTA-NSUB
     RDKit          2D

 36 38  0  0  0  0  0  0  0  0999 V2000
   -6.5238    2.9903    0.0000 C   0  0  0  0  0  0  0  0  0  0  0  0
   -5.0287    3.1111    0.0000 C   0  0  0  0  0  0  0  0  0  0  0  0
   -3.5336    3.2318    0.0000 C   0  0  0  0  0  0  0  0  0  0  0  0
   -5.1494    4.6062    0.0000 C   0  0  0  0  0  0  0  0  0  0  0  0
   -4.9079    1.6160    0.0000 N   0  0  0  0  0  0  0  0  0  0  0  0
   -3.5527    0.9730    0.0000 C   0  0  0  0  0  0  0  0  0  0  0  0
   -2.3183    1.8251    0.0000 O   0  0  0  0  0  0  0  0  0  0  0  0
   -3.4320   -0.5222    0.0000 C   0  0  0  0  0  0  0  0  0  0  0  0
   -2.1514   -1.3033    0.0000 N   0  0  0  0  0  0  0  0  0  0  0  0
   -0.7668   -0.7264    0.0000 C   0  0  0  0  0  0  0  0  0  0  0  0
   -0.5741    0.7611    0.0000 O   0  0  0  0  0  0  0  0  0  0  0  0
    0.4251   -1.6372    0.0000 C   0  0  0  0  0  0  0  0  0  0  0  0
    0.2323   -3.1247    0.0000 O   0  0  0  0  0  0  0  0  0  0  0  0
    1.8097   -1.0603    0.0000 C   0  0  0  0  0  0  0  0  0  0  0  0
    3.0016   -1.9710    0.0000 C   0  0  0  0  0  0  0  0  0  0  0  0
    2.8089   -3.4586    0.0000 C   0  0  0  0  0  0  0  0  0  0  0  0
    4.0008   -4.3693    0.0000 C   0  0  0  0  0  0  0  0  0  0  0  0
    3.8080   -5.8568    0.0000 C   0  0  0  0  0  0  0  0  0  0  0  0
    2.4234   -6.4337    0.0000 C   0  0  0  0  0  0  0  0  0  0  0  0
    1.2315   -5.5230    0.0000 C   0  0  0  0  0  0  0  0  0  0  0  0
    1.4242   -4.0354    0.0000 C   0  0  0  0  0  0  0  0  0  0  0  0
    2.0025    0.4273    0.0000 N   0  0  0  0  0  0  0  0  0  0  0  0
    3.3871    1.0041    0.0000 C   0  0  0  0  0  0  0  0  0  0  0  0
    4.5790    0.0934    0.0000 O   0  0  0  0  0  0  0  0  0  0  0  0
    3.5799    2.4917    0.0000 C   0  0  0  0  0  0  0  0  0  0  0  0
    2.3880    3.4024    0.0000 C   0  0  0  0  0  0  0  0  0  0  0  0
    2.5807    4.8900    0.0000 C   0  0  0  0  0  0  0  0  0  0  0  0
    3.9654    5.4668    0.0000 C   0  0  0  0  0  0  0  0  0  0  0  0
    5.1573    4.5561    0.0000 C   0  0  0  0  0  0  0  0  0  0  0  0
    6.5419    5.1330    0.0000 O   0  0  0  0  0  0  0  0  0  0  0  0
    4.9645    3.0685    0.0000 C   0  0  0  0  0  0  0  0  0  0  0  0
   -2.4986   -2.7626    0.0000 C   0  0  0  0  0  0  0  0  0  0  0  0
   -3.9938   -2.8833    0.0000 S   0  0  0  0  0  0  0  0  0  0  0  0
   -4.5706   -1.4987    0.0000 C   0  0  0  0  0  0  0  0  0  0  0  0
   -5.4228   -0.2642    0.0000 C   0  0  0  0  0  0  0  0  0  0  0  0
   -5.8874   -2.2171    0.0000 C   0  0  0  0  0  0  0  0  0  0  0  0
  1  2  1  0
  2  3  1  0
  2  4  1  0
  2  5  1  0
  5  6  1  0
  6  7  2  0
  8  6  1  1
  8  9  1  0
  9 10  1  0
 10 11  2  0
 10 12  1  0
 12 13  1  6
 12 14  1  0
 14 15  1  1
 15 16  1  0
 16 17  2  0
 17 18  1  0
 18 19  2  0
 19 20  1  0
 20 21  2  0
 14 22  1  0
 22 23  1  0
 23 24  2  0
 23 25  1  0
 25 26  2  0
 26 27  1  0
 27 28  2  0
 28 29  1  0
 29 30  1  0
 29 31  2  0
  9 32  1  0
 32 33  1  0
 33 34  1  0
 34 35  1  0
 34 36  1  0
 34  8  1  0
 21 16  1  0
 31 25  1  0
M  END
>  <PANEL_KEY>  (3)
A0B1

>  <COMPOUND_ID>  (3)
MOLDISC-014-SOURCE-DELTA-NSUB

>  <VARIANT_ID>  (3)
A0B1-DELTA-NSUB

>  <FACTOR_A>  (3)
CONTROL

>  <FACTOR_B>  (3)
DELTA-NSUB

>  <ISOMERIC_SMILES>  (3)
CC(C)(C)NC(=O)[C@H]1N(C(=O)[C@@H](O)[C@H](Cc2ccccc2)NC(=O)c2cccc(O)c2)CSC1(C)C

>  <INCHIKEY>  (3)
DMSDTDPQGPRTNA-FDFHNCONSA-N

>  <FORMULA>  (3)
C27H35N3O5S

$$$$
A1B1 MOLDISC-014-SOURCE-DELTA-BOTH
     RDKit          2D

 35 37  0  0  0  0  0  0  0  0999 V2000
   -6.9718    1.1797    0.0000 C   0  0  0  0  0  0  0  0  0  0  0  0
   -5.5747    1.7258    0.0000 C   0  0  0  0  0  0  0  0  0  0  0  0
   -4.1776    2.2719    0.0000 C   0  0  0  0  0  0  0  0  0  0  0  0
   -6.1208    3.1229    0.0000 C   0  0  0  0  0  0  0  0  0  0  0  0
   -5.0286    0.3287    0.0000 N   0  0  0  0  0  0  0  0  0  0  0  0
   -3.5457    0.1031    0.0000 C   0  0  0  0  0  0  0  0  0  0  0  0
   -2.6088    1.2746    0.0000 O   0  0  0  0  0  0  0  0  0  0  0  0
   -2.9996   -1.2939    0.0000 C   0  0  0  0  0  0  0  0  0  0  0  0
   -1.5483   -1.6733    0.0000 N   0  0  0  0  0  0  0  0  0  0  0  0
   -0.3884   -0.7222    0.0000 C   0  0  0  0  0  0  0  0  0  0  0  0
   -0.6321    0.7579    0.0000 O   0  0  0  0  0  0  0  0  0  0  0  0
    1.0152   -1.2512    0.0000 C   0  0  0  0  0  0  0  0  0  0  0  0
    1.2589   -2.7313    0.0000 O   0  0  0  0  0  0  0  0  0  0  0  0
    2.1752   -0.3001    0.0000 C   0  0  0  0  0  0  0  0  0  0  0  0
    3.5788   -0.8291    0.0000 C   0  0  0  0  0  0  0  0  0  0  0  0
    3.8225   -2.3092    0.0000 C   0  0  0  0  0  0  0  0  0  0  0  0
    5.2261   -2.8381    0.0000 C   0  0  0  0  0  0  0  0  0  0  0  0
    5.4698   -4.3182    0.0000 C   0  0  0  0  0  0  0  0  0  0  0  0
    4.3099   -5.2693    0.0000 C   0  0  0  0  0  0  0  0  0  0  0  0
    2.9062   -4.7403    0.0000 C   0  0  0  0  0  0  0  0  0  0  0  0
    2.6625   -3.2602    0.0000 C   0  0  0  0  0  0  0  0  0  0  0  0
    1.9315    1.1800    0.0000 N   0  0  0  0  0  0  0  0  0  0  0  0
    3.0914    2.1311    0.0000 C   0  0  0  0  0  0  0  0  0  0  0  0
    4.4950    1.6021    0.0000 O   0  0  0  0  0  0  0  0  0  0  0  0
    2.8477    3.6111    0.0000 C   0  0  0  0  0  0  0  0  0  0  0  0
    1.4441    4.1401    0.0000 C   0  0  0  0  0  0  0  0  0  0  0  0
    1.2004    5.6202    0.0000 C   0  0  0  0  0  0  0  0  0  0  0  0
    2.3603    6.5713    0.0000 C   0  0  0  0  0  0  0  0  0  0  0  0
    3.7639    6.0423    0.0000 C   0  0  0  0  0  0  0  0  0  0  0  0
    4.0076    4.5622    0.0000 C   0  0  0  0  0  0  0  0  0  0  0  0
   -1.4607   -3.1707    0.0000 C   0  0  0  0  0  0  0  0  0  0  0  0
   -2.8577   -3.7168    0.0000 S   0  0  0  0  0  0  0  0  0  0  0  0
   -3.8088   -2.5569    0.0000 C   0  0  0  0  0  0  0  0  0  0  0  0
   -4.9803   -1.6200    0.0000 C   0  0  0  0  0  0  0  0  0  0  0  0
   -4.8630   -3.6240    0.0000 C   0  0  0  0  0  0  0  0  0  0  0  0
  1  2  1  0
  2  3  1  0
  2  4  1  0
  2  5  1  0
  5  6  1  0
  6  7  2  0
  8  6  1  1
  8  9  1  0
  9 10  1  0
 10 11  2  0
 10 12  1  0
 12 13  1  6
 12 14  1  0
 14 15  1  1
 15 16  1  0
 16 17  2  0
 17 18  1  0
 18 19  2  0
 19 20  1  0
 20 21  2  0
 14 22  1  0
 22 23  1  0
 23 24  2  0
 23 25  1  0
 25 26  2  0
 26 27  1  0
 27 28  2  0
 28 29  1  0
 29 30  2  0
  9 31  1  0
 31 32  1  0
 32 33  1  0
 33 34  1  0
 33 35  1  0
 33  8  1  0
 21 16  1  0
 30 25  1  0
M  END
>  <PANEL_KEY>  (4)
A1B1

>  <COMPOUND_ID>  (4)
MOLDISC-014-SOURCE-DELTA-BOTH

>  <VARIANT_ID>  (4)
A1B1-DELTA-BOTH

>  <FACTOR_A>  (4)
DELTA-OH

>  <FACTOR_B>  (4)
DELTA-NSUB

>  <ISOMERIC_SMILES>  (4)
CC(C)(C)NC(=O)[C@H]1N(C(=O)[C@@H](O)[C@H](Cc2ccccc2)NC(=O)c2ccccc2)CSC1(C)C

>  <INCHIKEY>  (4)
URHJIBSBOJFXDI-FDFHNCONSA-N

>  <FORMULA>  (4)
C27H35N3O4S

$$$$
