A0B0 MOLDISC-011-JE2-286E6F2BE8
     RDKit          2D

 39 42  0  0  0  0  0  0  0  0999 V2000
   -3.8132   -4.2634    0.0000 C   0  0  0  0  0  0  0  0  0  0  0  0
   -2.8409   -3.1212    0.0000 C   0  0  0  0  0  0  0  0  0  0  0  0
   -4.0784   -2.2736    0.0000 C   0  0  0  0  0  0  0  0  0  0  0  0
   -1.8066   -4.2076    0.0000 S   0  0  0  0  0  0  0  0  0  0  0  0
   -0.4538   -3.5597    0.0000 C   0  0  0  0  0  0  0  0  0  0  0  0
   -0.6519   -2.0728    0.0000 N   0  0  0  0  0  0  0  0  0  0  0  0
    0.4345   -1.0386    0.0000 C   0  0  0  0  0  0  0  0  0  0  0  0
    0.0820    0.4194    0.0000 O   0  0  0  0  0  0  0  0  0  0  0  0
    1.8734   -1.4623    0.0000 C   0  0  0  0  0  0  0  0  0  0  0  0
    2.2259   -2.9203    0.0000 O   0  0  0  0  0  0  0  0  0  0  0  0
    2.9598   -0.4280    0.0000 C   0  0  0  0  0  0  0  0  0  0  0  0
    4.3987   -0.8517    0.0000 C   0  0  0  0  0  0  0  0  0  0  0  0
    4.7512   -2.3097    0.0000 C   0  0  0  0  0  0  0  0  0  0  0  0
    6.1901   -2.7334    0.0000 C   0  0  0  0  0  0  0  0  0  0  0  0
    6.5426   -4.1914    0.0000 C   0  0  0  0  0  0  0  0  0  0  0  0
    5.4562   -5.2257    0.0000 C   0  0  0  0  0  0  0  0  0  0  0  0
    4.0173   -4.8020    0.0000 C   0  0  0  0  0  0  0  0  0  0  0  0
    3.6648   -3.3440    0.0000 C   0  0  0  0  0  0  0  0  0  0  0  0
    2.6073    1.0300    0.0000 N   0  0  0  0  0  0  0  0  0  0  0  0
    3.6937    2.0642    0.0000 C   0  0  0  0  0  0  0  0  0  0  0  0
    5.1326    1.6405    0.0000 O   0  0  0  0  0  0  0  0  0  0  0  0
    3.3412    3.5222    0.0000 C   0  0  0  0  0  0  0  0  0  0  0  0
    1.9023    3.9460    0.0000 C   0  0  0  0  0  0  0  0  0  0  0  0
    1.5498    5.4040    0.0000 C   0  0  0  0  0  0  0  0  0  0  0  0
    2.6362    6.4382    0.0000 C   0  0  0  0  0  0  0  0  0  0  0  0
    4.0751    6.0145    0.0000 C   0  0  0  0  0  0  0  0  0  0  0  0
    5.1615    7.0488    0.0000 O   0  0  0  0  0  0  0  0  0  0  0  0
    4.4276    4.5565    0.0000 C   0  0  0  0  0  0  0  0  0  0  0  0
   -2.1273   -1.8019    0.0000 C   0  0  0  0  0  0  0  0  0  0  0  0
   -2.7752   -0.4490    0.0000 C   0  0  0  0  0  0  0  0  0  0  0  0
   -1.9276    0.7885    0.0000 O   0  0  0  0  0  0  0  0  0  0  0  0
   -4.2708   -0.3337    0.0000 N   0  0  0  0  0  0  0  0  0  0  0  0
   -4.9187    1.0191    0.0000 C   0  0  0  0  0  0  0  0  0  0  0  0
   -6.4143    1.1344    0.0000 C   0  0  0  0  0  0  0  0  0  0  0  0
   -7.0622    2.4873    0.0000 C   0  0  0  0  0  0  0  0  0  0  0  0
   -8.5578    2.6025    0.0000 C   0  0  0  0  0  0  0  0  0  0  0  0
   -9.4054    1.3650    0.0000 C   0  0  0  0  0  0  0  0  0  0  0  0
   -8.7574    0.0122    0.0000 C   0  0  0  0  0  0  0  0  0  0  0  0
   -7.2619   -0.1031    0.0000 C   0  0  0  0  0  0  0  0  0  0  0  0
  1  2  1  0
  2  3  1  0
  2  4  1  0
  4  5  1  0
  5  6  1  0
  6  7  1  0
  7  8  2  0
  7  9  1  0
  9 10  1  6
  9 11  1  0
 11 12  1  1
 12 13  1  0
 13 14  4  0
 14 15  4  0
 15 16  4  0
 16 17  4  0
 17 18  4  0
 11 19  1  0
 19 20  1  0
 20 21  2  0
 20 22  1  0
 22 23  4  0
 23 24  4  0
 24 25  4  0
 25 26  4  0
 26 27  1  0
 26 28  4  0
  6 29  1  0
 29 30  1  1
 30 31  2  0
 30 32  1  0
 32 33  1  0
 33 34  1  0
 34 35  4  0
 35 36  4  0
 36 37  4  0
 37 38  4  0
 38 39  4  0
 29  2  1  0
 39 34  4  0
 18 13  4  0
 28 22  4  0
M  END
