A0B1 MOLDISC-014-SOURCE-DELTA-NSUB
     RDKit          2D

 36 38  0  0  0  0  0  0  0  0999 V2000
   -6.5238    2.9903    0.0000 C   0  0  0  0  0  0  0  0  0  0  0  0
   -5.0287    3.1111    0.0000 C   0  0  0  0  0  0  0  0  0  0  0  0
   -3.5336    3.2318    0.0000 C   0  0  0  0  0  0  0  0  0  0  0  0
   -5.1494    4.6062    0.0000 C   0  0  0  0  0  0  0  0  0  0  0  0
   -4.9079    1.6160    0.0000 N   0  0  0  0  0  0  0  0  0  0  0  0
   -3.5527    0.9730    0.0000 C   0  0  0  0  0  0  0  0  0  0  0  0
   -2.3183    1.8251    0.0000 O   0  0  0  0  0  0  0  0  0  0  0  0
   -3.4320   -0.5222    0.0000 C   0  0  0  0  0  0  0  0  0  0  0  0
   -2.1514   -1.3033    0.0000 N   0  0  0  0  0  0  0  0  0  0  0  0
   -0.7668   -0.7264    0.0000 C   0  0  0  0  0  0  0  0  0  0  0  0
   -0.5741    0.7611    0.0000 O   0  0  0  0  0  0  0  0  0  0  0  0
    0.4251   -1.6372    0.0000 C   0  0  0  0  0  0  0  0  0  0  0  0
    0.2323   -3.1247    0.0000 O   0  0  0  0  0  0  0  0  0  0  0  0
    1.8097   -1.0603    0.0000 C   0  0  0  0  0  0  0  0  0  0  0  0
    3.0016   -1.9710    0.0000 C   0  0  0  0  0  0  0  0  0  0  0  0
    2.8089   -3.4586    0.0000 C   0  0  0  0  0  0  0  0  0  0  0  0
    4.0008   -4.3693    0.0000 C   0  0  0  0  0  0  0  0  0  0  0  0
    3.8080   -5.8568    0.0000 C   0  0  0  0  0  0  0  0  0  0  0  0
    2.4234   -6.4337    0.0000 C   0  0  0  0  0  0  0  0  0  0  0  0
    1.2315   -5.5230    0.0000 C   0  0  0  0  0  0  0  0  0  0  0  0
    1.4242   -4.0354    0.0000 C   0  0  0  0  0  0  0  0  0  0  0  0
    2.0025    0.4273    0.0000 N   0  0  0  0  0  0  0  0  0  0  0  0
    3.3871    1.0041    0.0000 C   0  0  0  0  0  0  0  0  0  0  0  0
    4.5790    0.0934    0.0000 O   0  0  0  0  0  0  0  0  0  0  0  0
    3.5799    2.4917    0.0000 C   0  0  0  0  0  0  0  0  0  0  0  0
    2.3880    3.4024    0.0000 C   0  0  0  0  0  0  0  0  0  0  0  0
    2.5807    4.8900    0.0000 C   0  0  0  0  0  0  0  0  0  0  0  0
    3.9654    5.4668    0.0000 C   0  0  0  0  0  0  0  0  0  0  0  0
    5.1573    4.5561    0.0000 C   0  0  0  0  0  0  0  0  0  0  0  0
    6.5419    5.1330    0.0000 O   0  0  0  0  0  0  0  0  0  0  0  0
    4.9645    3.0685    0.0000 C   0  0  0  0  0  0  0  0  0  0  0  0
   -2.4986   -2.7626    0.0000 C   0  0  0  0  0  0  0  0  0  0  0  0
   -3.9938   -2.8833    0.0000 S   0  0  0  0  0  0  0  0  0  0  0  0
   -4.5706   -1.4987    0.0000 C   0  0  0  0  0  0  0  0  0  0  0  0
   -5.4228   -0.2642    0.0000 C   0  0  0  0  0  0  0  0  0  0  0  0
   -5.8874   -2.2171    0.0000 C   0  0  0  0  0  0  0  0  0  0  0  0
  1  2  1  0
  2  3  1  0
  2  4  1  0
  2  5  1  0
  5  6  1  0
  6  7  2  0
  8  6  1  1
  8  9  1  0
  9 10  1  0
 10 11  2  0
 10 12  1  0
 12 13  1  6
 12 14  1  0
 14 15  1  1
 15 16  1  0
 16 17  4  0
 17 18  4  0
 18 19  4  0
 19 20  4  0
 20 21  4  0
 14 22  1  0
 22 23  1  0
 23 24  2  0
 23 25  1  0
 25 26  4  0
 26 27  4  0
 27 28  4  0
 28 29  4  0
 29 30  1  0
 29 31  4  0
  9 32  1  0
 32 33  1  0
 33 34  1  0
 34 35  1  0
 34 36  1  0
 34  8  1  0
 21 16  4  0
 31 25  4  0
M  END
