A1B0 MOLDISC-014-SOURCE-DELTA-OH
     RDKit          2D

 38 41  0  0  0  0  0  0  0  0999 V2000
   -3.3168   -4.3762    0.0000 C   0  0  0  0  0  0  0  0  0  0  0  0
   -2.4453   -3.1554    0.0000 C   0  0  0  0  0  0  0  0  0  0  0  0
   -3.7505   -2.4162    0.0000 C   0  0  0  0  0  0  0  0  0  0  0  0
   -1.3223   -4.1498    0.0000 S   0  0  0  0  0  0  0  0  0  0  0  0
   -0.0295   -3.3890    0.0000 C   0  0  0  0  0  0  0  0  0  0  0  0
   -0.3535   -1.9244    0.0000 N   0  0  0  0  0  0  0  0  0  0  0  0
    0.6409   -0.8014    0.0000 C   0  0  0  0  0  0  0  0  0  0  0  0
    0.1655    0.6213    0.0000 O   0  0  0  0  0  0  0  0  0  0  0  0
    2.1106   -1.1011    0.0000 C   0  0  0  0  0  0  0  0  0  0  0  0
    2.5860   -2.5238    0.0000 O   0  0  0  0  0  0  0  0  0  0  0  0
    3.1050    0.0219    0.0000 C   0  0  0  0  0  0  0  0  0  0  0  0
    4.5748   -0.2777    0.0000 C   0  0  0  0  0  0  0  0  0  0  0  0
    5.0501   -1.7004    0.0000 C   0  0  0  0  0  0  0  0  0  0  0  0
    6.5199   -2.0001    0.0000 C   0  0  0  0  0  0  0  0  0  0  0  0
    6.9953   -3.4228    0.0000 C   0  0  0  0  0  0  0  0  0  0  0  0
    6.0009   -4.5458    0.0000 C   0  0  0  0  0  0  0  0  0  0  0  0
    4.5311   -4.2461    0.0000 C   0  0  0  0  0  0  0  0  0  0  0  0
    4.0557   -2.8234    0.0000 C   0  0  0  0  0  0  0  0  0  0  0  0
    2.6296    1.4446    0.0000 N   0  0  0  0  0  0  0  0  0  0  0  0
    3.6240    2.5676    0.0000 C   0  0  0  0  0  0  0  0  0  0  0  0
    5.0938    2.2680    0.0000 O   0  0  0  0  0  0  0  0  0  0  0  0
    3.1487    3.9903    0.0000 C   0  0  0  0  0  0  0  0  0  0  0  0
    1.6789    4.2900    0.0000 C   0  0  0  0  0  0  0  0  0  0  0  0
    1.2036    5.7127    0.0000 C   0  0  0  0  0  0  0  0  0  0  0  0
    2.1980    6.8357    0.0000 C   0  0  0  0  0  0  0  0  0  0  0  0
    3.6677    6.5360    0.0000 C   0  0  0  0  0  0  0  0  0  0  0  0
    4.1431    5.1133    0.0000 C   0  0  0  0  0  0  0  0  0  0  0  0
   -1.8466   -1.7801    0.0000 C   0  0  0  0  0  0  0  0  0  0  0  0
   -2.6073   -0.4873    0.0000 C   0  0  0  0  0  0  0  0  0  0  0  0
   -1.8682    0.8179    0.0000 O   0  0  0  0  0  0  0  0  0  0  0  0
   -4.1073   -0.4998    0.0000 N   0  0  0  0  0  0  0  0  0  0  0  0
   -4.8681    0.7930    0.0000 C   0  0  0  0  0  0  0  0  0  0  0  0
   -6.3680    0.7805    0.0000 C   0  0  0  0  0  0  0  0  0  0  0  0
   -7.1288    2.0733    0.0000 C   0  0  0  0  0  0  0  0  0  0  0  0
   -8.6287    2.0608    0.0000 C   0  0  0  0  0  0  0  0  0  0  0  0
   -9.3679    0.7556    0.0000 C   0  0  0  0  0  0  0  0  0  0  0  0
   -8.6071   -0.5372    0.0000 C   0  0  0  0  0  0  0  0  0  0  0  0
   -7.1072   -0.5247    0.0000 C   0  0  0  0  0  0  0  0  0  0  0  0
  1  2  1  0
  2  3  1  0
  2  4  1  0
  4  5  1  0
  5  6  1  0
  6  7  1  0
  7  8  2  0
  7  9  1  0
  9 10  1  6
  9 11  1  0
 11 12  1  1
 12 13  1  0
 13 14  4  0
 14 15  4  0
 15 16  4  0
 16 17  4  0
 17 18  4  0
 11 19  1  0
 19 20  1  0
 20 21  2  0
 20 22  1  0
 22 23  4  0
 23 24  4  0
 24 25  4  0
 25 26  4  0
 26 27  4  0
  6 28  1  0
 28 29  1  1
 29 30  2  0
 29 31  1  0
 31 32  1  0
 32 33  1  0
 33 34  4  0
 34 35  4  0
 35 36  4  0
 36 37  4  0
 37 38  4  0
 28  2  1  0
 38 33  4  0
 18 13  4  0
 27 22  4  0
M  END
