A1B1 MOLDISC-014-SOURCE-DELTA-BOTH
     RDKit          2D

 35 37  0  0  0  0  0  0  0  0999 V2000
   -6.9718    1.1797    0.0000 C   0  0  0  0  0  0  0  0  0  0  0  0
   -5.5747    1.7258    0.0000 C   0  0  0  0  0  0  0  0  0  0  0  0
   -4.1776    2.2719    0.0000 C   0  0  0  0  0  0  0  0  0  0  0  0
   -6.1208    3.1229    0.0000 C   0  0  0  0  0  0  0  0  0  0  0  0
   -5.0286    0.3287    0.0000 N   0  0  0  0  0  0  0  0  0  0  0  0
   -3.5457    0.1031    0.0000 C   0  0  0  0  0  0  0  0  0  0  0  0
   -2.6088    1.2746    0.0000 O   0  0  0  0  0  0  0  0  0  0  0  0
   -2.9996   -1.2939    0.0000 C   0  0  0  0  0  0  0  0  0  0  0  0
   -1.5483   -1.6733    0.0000 N   0  0  0  0  0  0  0  0  0  0  0  0
   -0.3884   -0.7222    0.0000 C   0  0  0  0  0  0  0  0  0  0  0  0
   -0.6321    0.7579    0.0000 O   0  0  0  0  0  0  0  0  0  0  0  0
    1.0152   -1.2512    0.0000 C   0  0  0  0  0  0  0  0  0  0  0  0
    1.2589   -2.7313    0.0000 O   0  0  0  0  0  0  0  0  0  0  0  0
    2.1752   -0.3001    0.0000 C   0  0  0  0  0  0  0  0  0  0  0  0
    3.5788   -0.8291    0.0000 C   0  0  0  0  0  0  0  0  0  0  0  0
    3.8225   -2.3092    0.0000 C   0  0  0  0  0  0  0  0  0  0  0  0
    5.2261   -2.8381    0.0000 C   0  0  0  0  0  0  0  0  0  0  0  0
    5.4698   -4.3182    0.0000 C   0  0  0  0  0  0  0  0  0  0  0  0
    4.3099   -5.2693    0.0000 C   0  0  0  0  0  0  0  0  0  0  0  0
    2.9062   -4.7403    0.0000 C   0  0  0  0  0  0  0  0  0  0  0  0
    2.6625   -3.2602    0.0000 C   0  0  0  0  0  0  0  0  0  0  0  0
    1.9315    1.1800    0.0000 N   0  0  0  0  0  0  0  0  0  0  0  0
    3.0914    2.1311    0.0000 C   0  0  0  0  0  0  0  0  0  0  0  0
    4.4950    1.6021    0.0000 O   0  0  0  0  0  0  0  0  0  0  0  0
    2.8477    3.6111    0.0000 C   0  0  0  0  0  0  0  0  0  0  0  0
    1.4441    4.1401    0.0000 C   0  0  0  0  0  0  0  0  0  0  0  0
    1.2004    5.6202    0.0000 C   0  0  0  0  0  0  0  0  0  0  0  0
    2.3603    6.5713    0.0000 C   0  0  0  0  0  0  0  0  0  0  0  0
    3.7639    6.0423    0.0000 C   0  0  0  0  0  0  0  0  0  0  0  0
    4.0076    4.5622    0.0000 C   0  0  0  0  0  0  0  0  0  0  0  0
   -1.4607   -3.1707    0.0000 C   0  0  0  0  0  0  0  0  0  0  0  0
   -2.8577   -3.7168    0.0000 S   0  0  0  0  0  0  0  0  0  0  0  0
   -3.8088   -2.5569    0.0000 C   0  0  0  0  0  0  0  0  0  0  0  0
   -4.9803   -1.6200    0.0000 C   0  0  0  0  0  0  0  0  0  0  0  0
   -4.8630   -3.6240    0.0000 C   0  0  0  0  0  0  0  0  0  0  0  0
  1  2  1  0
  2  3  1  0
  2  4  1  0
  2  5  1  0
  5  6  1  0
  6  7  2  0
  8  6  1  1
  8  9  1  0
  9 10  1  0
 10 11  2  0
 10 12  1  0
 12 13  1  6
 12 14  1  0
 14 15  1  1
 15 16  1  0
 16 17  4  0
 17 18  4  0
 18 19  4  0
 19 20  4  0
 20 21  4  0
 14 22  1  0
 22 23  1  0
 23 24  2  0
 23 25  1  0
 25 26  4  0
 26 27  4  0
 27 28  4  0
 28 29  4  0
 29 30  4  0
  9 31  1  0
 31 32  1  0
 32 33  1  0
 33 34  1  0
 33 35  1  0
 33  8  1  0
 21 16  4  0
 30 25  4  0
M  END
