SPQ
     RDKit          3D

 27 27  0  0  1  0  0  0  0  0999 V2000
   52.1730   65.2630   89.4190 C   0  0  0  0  0  3  0  0  0  0  0  0
   52.3680   64.2630   88.2690 C   0  0  0  0  0  3  0  0  0  0  0  0
   52.4400   64.5560   90.7560 C   0  0  0  0  0  2  0  0  0  0  0  0
   51.7350   63.2210   90.8810 C   0  0  0  0  0  0  0  0  0  0  0  0
   51.3280   62.5390   89.7920 C   0  0  0  0  0  3  0  0  0  0  0  0
   51.3540   63.1090   88.3940 C   0  0  0  0  0  3  0  0  0  0  0  0
   51.6120   62.6070   92.2250 C   0  0  0  0  0  0  0  0  0  0  0  0
   50.6190   62.8770   92.9540 O   0  0  0  0  0  0  0  0  0  0  0  0
   52.5850   61.7280   92.6960 O   0  0  0  0  0  0  0  0  0  0  0  0
   52.2040   64.9200   87.0390 O   0  0  0  0  0  0  0  0  0  0  0  0
   53.1060   66.3290   89.2720 O   0  0  0  0  0  0  0  0  0  0  0  0
   52.5890   67.6070   89.6250 C   0  0  2  0  0  0  0  0  0  0  0  0
   52.6450   67.6600   91.1720 C   0  0  0  0  0  2  0  0  0  0  0  0
   52.6730   68.9710   91.6170 F   0  0  0  0  0  0  0  0  0  0  0  0
   51.1480   67.7000   89.1460 C   0  0  0  0  0  0  0  0  0  0  0  0
   50.2130   67.8870   89.9720 O   0  0  0  0  0  0  0  0  0  0  0  0
   50.8580   67.6610   87.7850 O   0  0  0  0  0  0  0  0  0  0  0  0
   53.4160   68.6170   89.0360 O   0  0  0  0  0  0  0  0  0  0  0  0
   54.4650   68.0480   87.7980 P   0  0  2  0  0  0  0  0  0  0  0  0
   55.1970   69.1750   87.1050 O   0  0  0  0  0  0  0  0  0  0  0  0
   53.5390   67.2180   86.6510 O   0  0  0  0  0  0  0  0  0  0  0  0
   55.5930   66.9750   88.4580 O   0  0  0  0  0  0  0  0  0  0  0  0
   50.0610   63.5950   88.0790 O   0  0  0  0  0  0  0  0  0  0  0  0
   49.4390   62.7980   86.7010 P   0  0  1  0  0  0  0  0  0  0  0  0
   50.4290   61.7740   86.1860 O   0  0  0  0  0  0  0  0  0  0  0  0
   48.0060   62.0080   87.1300 O   0  0  0  0  0  0  0  0  0  0  0  0
   49.0940   63.9290   85.4880 O   0  0  0  0  0  0  0  0  0  0  0  0
  1 11  1  0
  1  3  1  0
  2 10  1  0
  2  6  1  0
  2  1  1  0
  3  4  1  0
  4  7  1  0
  5  4  2  0
  6 23  1  0
  6  5  1  0
  7  9  1  0
  7  8  2  0
 11 12  1  0
 12 13  1  1
 13 14  1  0
 15 12  1  0
 15 16  2  0
 17 15  1  0
 18 12  1  0
 19 22  1  1
 19 18  1  0
 20 19  2  0
 21 19  1  0
 24 26  1  1
 24 23  1  0
 25 24  2  0
 27 24  1  0
M  RAD  6   1   2   2   2   3   3   5   2   6   2  13   3
M  END
>  <MODEL>  (1) 
5

>  <REMARK>  (1) 
 VINA RESULT:    -5.997      5.498      8.696
 INTER + INTRA:         -11.999
 INTER:                 -10.289
 INTRA:                  -1.710
 UNBOUND:                -1.620
  Name = SPQ
  16 active torsions:
  status: ('A' for Active; 'I' for Inactive)
    1  A    between atoms: O_1  and  P_2
    2  A    between atoms: P_2  and  O_3
    3  A    between atoms: P_2  and  O_5
    4  A    between atoms: O_5  and  C_6
    5  A    between atoms: C_6  and  C_7
    6  A    between atoms: C_6  and  C_10
    7  A    between atoms: C_6  and  O_12
    8  A    between atoms: C_7  and  O_8
    9  A    between atoms: O_12  and  C_13
   10  A    between atoms: C_14  and  O_15
   11  A    between atoms: C_17  and  C_18
   12  A    between atoms: C_18  and  O_19
   13  A    between atoms: C_22  and  O_23
   14  A    between atoms: O_23  and  P_24
   15  A    between atoms: P_24  and  O_25
   16  A    between atoms: P_24  and  O_26
                            x       y       z     vdW  Elec       q    Type
                         _______ _______ _______ _____ _____    ______ ____

>  <TORSDO>  (1) 
F 16

$$$$
