SPQ
     RDKit          3D

 27 27  0  0  1  0  0  0  0  0999 V2000
   50.4740   63.7850   91.2020 C   0  0  0  0  0  3  0  0  0  0  0  0
   51.2180   64.2290   89.9340 C   0  0  0  0  0  3  0  0  0  0  0  0
   51.0860   62.4720   91.7140 C   0  0  0  0  0  2  0  0  0  0  0  0
   51.2720   61.4320   90.6270 C   0  0  0  0  0  0  0  0  0  0  0  0
   51.3380   61.7820   89.3270 C   0  0  0  0  0  3  0  0  0  0  0  0
   51.0460   63.1740   88.8230 C   0  0  0  0  0  3  0  0  0  0  0  0
   51.5100   60.0250   91.0260 C   0  0  0  0  0  0  0  0  0  0  0  0
   52.6420   59.6730   91.4570 O   0  0  0  0  0  0  0  0  0  0  0  0
   50.4930   59.0770   90.9320 O   0  0  0  0  0  0  0  0  0  0  0  0
   50.7180   65.4690   89.5040 O   0  0  0  0  0  0  0  0  0  0  0  0
   50.6310   64.7820   92.2070 O   0  0  0  0  0  0  0  0  0  0  0  0
   49.4840   64.9630   93.0300 C   0  0  2  0  0  0  0  0  0  0  0  0
   48.5950   63.7190   92.7760 C   0  0  0  0  0  2  0  0  0  0  0  0
   48.4000   63.0080   93.9480 F   0  0  0  0  0  0  0  0  0  0  0  0
   48.7600   66.2270   92.5880 C   0  0  0  0  0  0  0  0  0  0  0  0
   49.2860   66.9980   91.7400 O   0  0  0  0  0  0  0  0  0  0  0  0
   47.4760   66.4980   93.0530 O   0  0  0  0  0  0  0  0  0  0  0  0
   49.9040   65.0360   94.3970 O   0  0  0  0  0  0  0  0  0  0  0  0
   51.4720   65.7040   94.6260 P   0  0  2  0  0  0  0  0  0  0  0  0
   51.7600   65.9990   96.0810 O   0  0  0  0  0  0  0  0  0  0  0  0
   51.5730   67.1470   93.7500 O   0  0  0  0  0  0  0  0  0  0  0  0
   52.6380   64.6310   94.0340 O   0  0  0  0  0  0  0  0  0  0  0  0
   49.7110   63.2150   88.3510 O   0  0  0  0  0  0  0  0  0  0  0  0
   49.6460   62.8000   86.6940 P   0  0  1  0  0  0  0  0  0  0  0  0
   51.0310   62.4930   86.1680 O   0  0  0  0  0  0  0  0  0  0  0  0
   48.6730   61.4290   86.5140 O   0  0  0  0  0  0  0  0  0  0  0  0
   48.9620   64.0730   85.8090 O   0  0  0  0  0  0  0  0  0  0  0  0
  1  3  1  0
  1 11  1  0
  2 10  1  0
  2  1  1  0
  4  7  1  0
  4  3  1  0
  5  4  2  0
  6 23  1  0
  6  5  1  0
  6  2  1  0
  7  8  2  0
  9  7  1  0
 11 12  1  0
 12 13  1  1
 12 18  1  0
 13 14  1  0
 15 12  1  0
 15 17  1  0
 16 15  2  0
 18 19  1  0
 19 20  2  0
 19 21  1  6
 22 19  1  0
 24 23  1  0
 25 24  2  0
 24 26  1  1
 27 24  1  0
M  RAD  6   1   2   2   2   3   3   5   2   6   2  13   3
M  END
>  <MODEL>  (1) 
16

>  <REMARK>  (1) 
 VINA RESULT:    -5.591      4.391      8.196
 INTER + INTRA:         -11.297
 INTER:                  -9.935
 INTRA:                  -1.362
 UNBOUND:                -1.620
  Name = SPQ
  16 active torsions:
  status: ('A' for Active; 'I' for Inactive)
    1  A    between atoms: O_1  and  P_2
    2  A    between atoms: P_2  and  O_3
    3  A    between atoms: P_2  and  O_5
    4  A    between atoms: O_5  and  C_6
    5  A    between atoms: C_6  and  C_7
    6  A    between atoms: C_6  and  C_10
    7  A    between atoms: C_6  and  O_12
    8  A    between atoms: C_7  and  O_8
    9  A    between atoms: O_12  and  C_13
   10  A    between atoms: C_14  and  O_15
   11  A    between atoms: C_17  and  C_18
   12  A    between atoms: C_18  and  O_19
   13  A    between atoms: C_22  and  O_23
   14  A    between atoms: O_23  and  P_24
   15  A    between atoms: P_24  and  O_25
   16  A    between atoms: P_24  and  O_26
                            x       y       z     vdW  Elec       q    Type
                         _______ _______ _______ _____ _____    ______ ____

>  <TORSDO>  (1) 
F 16

$$$$
