SPQ
     RDKit          3D

 27 27  0  0  1  0  0  0  0  0999 V2000
   52.7740   68.5560   95.3450 C   0  0  0  0  0  3  0  0  0  0  0  0
   53.8400   69.5100   94.7860 C   0  0  0  0  0  3  0  0  0  0  0  0
   52.3880   69.0030   96.7630 C   0  0  0  0  0  2  0  0  0  0  0  0
   53.5830   69.2910   97.6490 C   0  0  0  0  0  0  0  0  0  0  0  0
   54.7910   69.5770   97.1240 C   0  0  0  0  0  3  0  0  0  0  0  0
   55.1130   69.4490   95.6550 C   0  0  0  0  0  3  0  0  0  0  0  0
   53.3750   69.3820   99.1140 C   0  0  0  0  0  0  0  0  0  0  0  0
   53.9530   68.5700   99.8850 O   0  0  0  0  0  0  0  0  0  0  0  0
   52.5430   70.3610   99.6540 O   0  0  0  0  0  0  0  0  0  0  0  0
   54.1420   69.1560   93.4610 O   0  0  0  0  0  0  0  0  0  0  0  0
   51.6170   68.6140   94.5180 O   0  0  0  0  0  0  0  0  0  0  0  0
   51.1810   67.3470   94.0380 C   0  0  2  0  0  0  0  0  0  0  0  0
   52.2020   66.3240   94.5930 C   0  0  0  0  0  2  0  0  0  0  0  0
   51.5530   65.2180   95.1160 F   0  0  0  0  0  0  0  0  0  0  0  0
   51.2230   67.3610   92.5160 C   0  0  0  0  0  0  0  0  0  0  0  0
   50.7630   66.3890   91.8570 O   0  0  0  0  0  0  0  0  0  0  0  0
   51.6950   68.4830   91.8390 O   0  0  0  0  0  0  0  0  0  0  0  0
   49.8620   67.0950   94.5350 O   0  0  0  0  0  0  0  0  0  0  0  0
   48.7700   68.4120   94.3610 P   0  0  2  0  0  0  0  0  0  0  0  0
   49.0520   69.2290   93.1200 O   0  0  0  0  0  0  0  0  0  0  0  0
   48.9190   69.4140   95.7150 O   0  0  0  0  0  0  0  0  0  0  0  0
   47.1840   67.8280   94.2940 O   0  0  0  0  0  0  0  0  0  0  0  0
   55.7590   68.2070   95.4390 O   0  0  0  0  0  0  0  0  0  0  0  0
   57.3370   68.4490   94.8280 P   0  0  1  0  0  0  0  0  0  0  0  0
   58.0470   67.1240   94.6480 O   0  0  0  0  0  0  0  0  0  0  0  0
   57.2280   69.2220   93.3280 O   0  0  0  0  0  0  0  0  0  0  0  0
   58.2180   69.4360   95.8860 O   0  0  0  0  0  0  0  0  0  0  0  0
  1 11  1  0
  1  3  1  0
  2 10  1  0
  2  1  1  0
  2  6  1  0
  3  4  1  0
  4  7  1  0
  5  4  2  0
  6 23  1  0
  6  5  1  0
  7  9  1  0
  7  8  2  0
 12 11  1  0
 12 18  1  0
 12 13  1  1
 13 14  1  0
 15 12  1  0
 16 15  2  0
 17 15  1  0
 19 18  1  0
 19 21  1  1
 20 19  2  0
 22 19  1  0
 24 23  1  0
 24 27  1  1
 25 24  2  0
 26 24  1  0
M  RAD  6   1   2   2   2   3   3   5   2   6   2  13   3
M  END
>  <MODEL>  (1) 
10

>  <REMARK>  (1) 
 VINA RESULT:    -5.822      2.582      4.844
 INTER + INTRA:         -11.696
 INTER:                 -10.149
 INTRA:                  -1.547
 UNBOUND:                -1.620
  Name = SPQ
  16 active torsions:
  status: ('A' for Active; 'I' for Inactive)
    1  A    between atoms: O_1  and  P_2
    2  A    between atoms: P_2  and  O_3
    3  A    between atoms: P_2  and  O_5
    4  A    between atoms: O_5  and  C_6
    5  A    between atoms: C_6  and  C_7
    6  A    between atoms: C_6  and  C_10
    7  A    between atoms: C_6  and  O_12
    8  A    between atoms: C_7  and  O_8
    9  A    between atoms: O_12  and  C_13
   10  A    between atoms: C_14  and  O_15
   11  A    between atoms: C_17  and  C_18
   12  A    between atoms: C_18  and  O_19
   13  A    between atoms: C_22  and  O_23
   14  A    between atoms: O_23  and  P_24
   15  A    between atoms: P_24  and  O_25
   16  A    between atoms: P_24  and  O_26
                            x       y       z     vdW  Elec       q    Type
                         _______ _______ _______ _____ _____    ______ ____

>  <TORSDO>  (1) 
F 16

$$$$
