SPQ
     RDKit          3D

 27 27  0  0  1  0  0  0  0  0999 V2000
   51.3980   67.2050   91.1900 C   0  0  0  0  0  3  0  0  0  0  0  0
   50.8050   66.6170   89.9010 C   0  0  0  0  0  3  0  0  0  0  0  0
   51.7400   68.6850   90.9610 C   0  0  0  0  0  2  0  0  0  0  0  0
   52.5070   68.9330   89.6770 C   0  0  0  0  0  0  0  0  0  0  0  0
   52.4700   68.0520   88.6580 C   0  0  0  0  0  3  0  0  0  0  0  0
   51.8430   66.6820   88.7630 C   0  0  0  0  0  3  0  0  0  0  0  0
   53.2020   70.2300   89.5060 C   0  0  0  0  0  0  0  0  0  0  0  0
   54.3680   70.3870   89.9580 O   0  0  0  0  0  0  0  0  0  0  0  0
   52.5810   71.2880   88.8440 O   0  0  0  0  0  0  0  0  0  0  0  0
   50.4160   65.2870   90.1250 O   0  0  0  0  0  0  0  0  0  0  0  0
   50.4300   67.1170   92.2300 O   0  0  0  0  0  0  0  0  0  0  0  0
   50.9480   66.6420   93.4680 C   0  0  2  0  0  0  0  0  0  0  0  0
   52.4860   66.7960   93.3560 C   0  0  0  0  0  2  0  0  0  0  0  0
   52.9220   67.8970   94.0740 F   0  0  0  0  0  0  0  0  0  0  0  0
   50.5750   65.1750   93.6220 C   0  0  0  0  0  0  0  0  0  0  0  0
   51.2390   64.2830   93.0270 O   0  0  0  0  0  0  0  0  0  0  0  0
   49.5500   64.8000   94.4870 O   0  0  0  0  0  0  0  0  0  0  0  0
   50.4170   67.4450   94.5280 O   0  0  0  0  0  0  0  0  0  0  0  0
   48.9480   68.2520   94.1450 P   0  0  2  0  0  0  0  0  0  0  0  0
   49.1180   69.2450   93.0170 O   0  0  0  0  0  0  0  0  0  0  0  0
   48.4170   69.0810   95.5210 O   0  0  0  0  0  0  0  0  0  0  0  0
   47.7720   67.1160   93.7130 O   0  0  0  0  0  0  0  0  0  0  0  0
   52.8650   65.7340   89.0170 O   0  0  0  0  0  0  0  0  0  0  0  0
   52.9270   64.5690   87.7680 P   0  0  1  0  0  0  0  0  0  0  0  0
   53.6110   63.3070   88.2510 O   0  0  0  0  0  0  0  0  0  0  0  0
   51.3480   64.1910   87.2960 O   0  0  0  0  0  0  0  0  0  0  0  0
   53.7570   65.2000   86.4330 O   0  0  0  0  0  0  0  0  0  0  0  0
  1 11  1  0
  2 10  1  0
  2  1  1  0
  3  1  1  0
  4  3  1  0
  5  6  1  0
  5  4  2  0
  6 23  1  0
  6  2  1  0
  7  4  1  0
  7  8  2  0
  9  7  1  0
 11 12  1  0
 12 13  1  6
 12 15  1  0
 12 18  1  0
 13 14  1  0
 15 17  1  0
 16 15  2  0
 19 18  1  0
 19 21  1  1
 20 19  2  0
 22 19  1  0
 24 25  2  0
 24 23  1  0
 24 26  1  6
 27 24  1  0
M  RAD  6   1   2   2   2   3   3   5   2   6   2  13   3
M  END
>  <MODEL>  (1) 
18

>  <REMARK>  (1) 
 VINA RESULT:    -5.555      3.772      7.016
 INTER + INTRA:         -11.234
 INTER:                 -10.182
 INTRA:                  -1.052
 UNBOUND:                -1.620
  Name = SPQ
  16 active torsions:
  status: ('A' for Active; 'I' for Inactive)
    1  A    between atoms: O_1  and  P_2
    2  A    between atoms: P_2  and  O_3
    3  A    between atoms: P_2  and  O_5
    4  A    between atoms: O_5  and  C_6
    5  A    between atoms: C_6  and  C_7
    6  A    between atoms: C_6  and  C_10
    7  A    between atoms: C_6  and  O_12
    8  A    between atoms: C_7  and  O_8
    9  A    between atoms: O_12  and  C_13
   10  A    between atoms: C_14  and  O_15
   11  A    between atoms: C_17  and  C_18
   12  A    between atoms: C_18  and  O_19
   13  A    between atoms: C_22  and  O_23
   14  A    between atoms: O_23  and  P_24
   15  A    between atoms: P_24  and  O_25
   16  A    between atoms: P_24  and  O_26
                            x       y       z     vdW  Elec       q    Type
                         _______ _______ _______ _____ _____    ______ ____

>  <TORSDO>  (1) 
F 16

$$$$
