SPQ
     RDKit          3D

 27 27  0  0  1  0  0  0  0  0999 V2000
   52.4660   68.3480   92.0710 C   0  0  0  0  0  3  0  0  0  0  0  0
   53.5390   68.9190   93.0100 C   0  0  0  0  0  3  0  0  0  0  0  0
   51.0750   68.6860   92.6280 C   0  0  0  0  0  2  0  0  0  0  0  0
   50.9280   68.3800   94.1050 C   0  0  0  0  0  0  0  0  0  0  0  0
   52.0040   68.2800   94.9090 C   0  0  0  0  0  3  0  0  0  0  0  0
   53.4260   68.2660   94.4020 C   0  0  0  0  0  3  0  0  0  0  0  0
   49.5650   68.3180   94.6840 C   0  0  0  0  0  0  0  0  0  0  0  0
   48.5630   68.1920   93.9300 O   0  0  0  0  0  0  0  0  0  0  0  0
   49.3750   68.3960   96.0620 O   0  0  0  0  0  0  0  0  0  0  0  0
   54.8130   68.6840   92.4680 O   0  0  0  0  0  0  0  0  0  0  0  0
   52.6010   68.9510   90.7880 O   0  0  0  0  0  0  0  0  0  0  0  0
   52.6130   68.0230   89.7080 C   0  0  2  0  0  0  0  0  0  0  0  0
   51.2110   67.3630   89.7190 C   0  0  0  0  0  2  0  0  0  0  0  0
   50.2230   68.3080   89.5030 F   0  0  0  0  0  0  0  0  0  0  0  0
   53.6890   66.9790   89.9720 C   0  0  0  0  0  0  0  0  0  0  0  0
   53.3760   65.7670   90.1220 O   0  0  0  0  0  0  0  0  0  0  0  0
   55.0330   67.3430   89.9690 O   0  0  0  0  0  0  0  0  0  0  0  0
   52.8460   68.7370   88.4900 O   0  0  0  0  0  0  0  0  0  0  0  0
   53.2390   70.3980   88.7000 P   0  0  2  0  0  0  0  0  0  0  0  0
   53.6080   71.0690   87.3950 O   0  0  0  0  0  0  0  0  0  0  0  0
   54.5550   70.5080   89.7570 O   0  0  0  0  0  0  0  0  0  0  0  0
   51.9240   71.2090   89.3900 O   0  0  0  0  0  0  0  0  0  0  0  0
   53.8650   66.9210   94.3170 O   0  0  0  0  0  0  0  0  0  0  0  0
   55.2810   66.6910   95.2460 P   0  0  1  0  0  0  0  0  0  0  0  0
   55.3780   65.2580   95.7230 O   0  0  0  0  0  0  0  0  0  0  0  0
   56.6260   67.0420   94.2830 O   0  0  0  0  0  0  0  0  0  0  0  0
   55.2740   67.7420   96.5750 O   0  0  0  0  0  0  0  0  0  0  0  0
  1 11  1  0
  1  3  1  0
  1  2  1  0
  2 10  1  0
  2  6  1  0
  3  4  1  0
  4  7  1  0
  4  5  2  0
  6 23  1  0
  6  5  1  0
  7  9  1  0
  8  7  2  0
 12 13  1  6
 12 15  1  0
 12 11  1  0
 14 13  1  0
 15 16  2  0
 17 15  1  0
 18 19  1  0
 18 12  1  0
 19 22  1  1
 19 21  1  0
 20 19  2  0
 23 24  1  0
 24 25  2  0
 24 27  1  1
 26 24  1  0
M  RAD  6   1   2   2   2   3   3   5   2   6   2  13   3
M  END
>  <MODEL>  (1) 
17

>  <REMARK>  (1) 
 VINA RESULT:    -5.589      3.834      6.119
 INTER + INTRA:         -11.294
 INTER:                  -9.368
 INTRA:                  -1.926
 UNBOUND:                -1.620
  Name = SPQ
  16 active torsions:
  status: ('A' for Active; 'I' for Inactive)
    1  A    between atoms: O_1  and  P_2
    2  A    between atoms: P_2  and  O_3
    3  A    between atoms: P_2  and  O_5
    4  A    between atoms: O_5  and  C_6
    5  A    between atoms: C_6  and  C_7
    6  A    between atoms: C_6  and  C_10
    7  A    between atoms: C_6  and  O_12
    8  A    between atoms: C_7  and  O_8
    9  A    between atoms: O_12  and  C_13
   10  A    between atoms: C_14  and  O_15
   11  A    between atoms: C_17  and  C_18
   12  A    between atoms: C_18  and  O_19
   13  A    between atoms: C_22  and  O_23
   14  A    between atoms: O_23  and  P_24
   15  A    between atoms: P_24  and  O_25
   16  A    between atoms: P_24  and  O_26
                            x       y       z     vdW  Elec       q    Type
                         _______ _______ _______ _____ _____    ______ ____

>  <TORSDO>  (1) 
F 16

$$$$
