SPQ
     RDKit          3D

 27 27  0  0  1  0  0  0  0  0999 V2000
   53.5980   68.2480   92.1730 C   0  0  0  0  0  3  0  0  0  0  0  0
   54.3400   67.6960   90.9470 C   0  0  0  0  0  3  0  0  0  0  0  0
   52.1150   68.4400   91.8230 C   0  0  0  0  0  2  0  0  0  0  0  0
   51.8960   69.1590   90.5070 C   0  0  0  0  0  0  0  0  0  0  0  0
   52.8540   69.1930   89.5600 C   0  0  0  0  0  3  0  0  0  0  0  0
   54.2650   68.7060   89.7840 C   0  0  0  0  0  3  0  0  0  0  0  0
   50.5550   69.7210   90.2200 C   0  0  0  0  0  0  0  0  0  0  0  0
   49.5300   68.9930   90.3180 O   0  0  0  0  0  0  0  0  0  0  0  0
   50.4080   71.0550   89.8440 O   0  0  0  0  0  0  0  0  0  0  0  0
   55.6800   67.4420   91.2810 O   0  0  0  0  0  0  0  0  0  0  0  0
   53.6960   67.3080   93.2380 O   0  0  0  0  0  0  0  0  0  0  0  0
   54.0420   67.8860   94.4930 C   0  0  2  0  0  0  0  0  0  0  0  0
   54.3500   69.3730   94.1890 C   0  0  0  0  0  2  0  0  0  0  0  0
   53.9110   70.1860   95.2210 F   0  0  0  0  0  0  0  0  0  0  0  0
   55.2850   67.1880   95.0250 C   0  0  0  0  0  0  0  0  0  0  0  0
   56.0220   66.5200   94.2500 O   0  0  0  0  0  0  0  0  0  0  0  0
   55.6640   67.3500   96.3550 O   0  0  0  0  0  0  0  0  0  0  0  0
   52.9290   67.7530   95.3830 O   0  0  0  0  0  0  0  0  0  0  0  0
   52.1420   66.2250   95.3180 P   0  0  2  0  0  0  0  0  0  0  0  0
   51.6560   65.7740   96.6780 O   0  0  0  0  0  0  0  0  0  0  0  0
   53.2390   65.0810   94.7280 O   0  0  0  0  0  0  0  0  0  0  0  0
   50.8270   66.3090   94.2570 O   0  0  0  0  0  0  0  0  0  0  0  0
   55.0870   69.8190   90.0870 O   0  0  0  0  0  0  0  0  0  0  0  0
   55.4950   70.6710   88.6620 P   0  0  1  0  0  0  0  0  0  0  0  0
   54.4930   71.7740   88.3970 O   0  0  0  0  0  0  0  0  0  0  0  0
   57.0280   71.3560   88.8580 O   0  0  0  0  0  0  0  0  0  0  0  0
   55.5400   69.6030   87.3480 O   0  0  0  0  0  0  0  0  0  0  0  0
  1 11  1  0
  2 10  1  0
  2  1  1  0
  3  1  1  0
  4  3  1  0
  5  6  1  0
  5  4  2  0
  6 23  1  0
  6  2  1  0
  7  8  2  0
  7  4  1  0
  9  7  1  0
 11 12  1  0
 12 13  1  6
 12 15  1  0
 12 18  1  0
 13 14  1  0
 15 17  1  0
 16 15  2  0
 19 18  1  0
 19 20  2  0
 19 21  1  6
 22 19  1  0
 24 26  1  1
 24 23  1  0
 25 24  2  0
 27 24  1  0
M  RAD  6   1   2   2   2   3   3   5   2   6   2  13   3
M  END
>  <MODEL>  (1) 
6

>  <REMARK>  (1) 
 VINA RESULT:    -5.987      4.146      6.852
 INTER + INTRA:         -11.983
 INTER:                 -10.498
 INTRA:                  -1.484
 UNBOUND:                -1.620
  Name = SPQ
  16 active torsions:
  status: ('A' for Active; 'I' for Inactive)
    1  A    between atoms: O_1  and  P_2
    2  A    between atoms: P_2  and  O_3
    3  A    between atoms: P_2  and  O_5
    4  A    between atoms: O_5  and  C_6
    5  A    between atoms: C_6  and  C_7
    6  A    between atoms: C_6  and  C_10
    7  A    between atoms: C_6  and  O_12
    8  A    between atoms: C_7  and  O_8
    9  A    between atoms: O_12  and  C_13
   10  A    between atoms: C_14  and  O_15
   11  A    between atoms: C_17  and  C_18
   12  A    between atoms: C_18  and  O_19
   13  A    between atoms: C_22  and  O_23
   14  A    between atoms: O_23  and  P_24
   15  A    between atoms: P_24  and  O_25
   16  A    between atoms: P_24  and  O_26
                            x       y       z     vdW  Elec       q    Type
                         _______ _______ _______ _____ _____    ______ ____

>  <TORSDO>  (1) 
F 16

$$$$
