SPQ
     RDKit          3D

 27 27  0  0  1  0  0  0  0  0999 V2000
   51.4340   67.5480   94.7270 C   0  0  0  0  0  3  0  0  0  0  0  0
   51.1700   68.0380   96.1590 C   0  0  0  0  0  3  0  0  0  0  0  0
   52.7900   66.8280   94.6800 C   0  0  0  0  0  2  0  0  0  0  0  0
   53.9050   67.6010   95.3580 C   0  0  0  0  0  0  0  0  0  0  0  0
   53.6400   68.5470   96.2800 C   0  0  0  0  0  3  0  0  0  0  0  0
   52.2500   69.0560   96.5780 C   0  0  0  0  0  3  0  0  0  0  0  0
   55.3070   67.2080   95.0840 C   0  0  0  0  0  0  0  0  0  0  0  0
   55.8790   67.6020   94.0310 O   0  0  0  0  0  0  0  0  0  0  0  0
   56.0090   66.4060   95.9810 O   0  0  0  0  0  0  0  0  0  0  0  0
   49.8980   68.6270   96.2290 O   0  0  0  0  0  0  0  0  0  0  0  0
   50.4150   66.6250   94.3560 O   0  0  0  0  0  0  0  0  0  0  0  0
   49.7280   66.9690   93.1580 C   0  0  2  0  0  0  0  0  0  0  0  0
   50.3390   68.3200   92.7070 C   0  0  0  0  0  2  0  0  0  0  0  0
   50.2120   68.4820   91.3370 F   0  0  0  0  0  0  0  0  0  0  0  0
   48.2490   67.1400   93.4760 C   0  0  0  0  0  0  0  0  0  0  0  0
   47.8730   68.0070   94.3110 O   0  0  0  0  0  0  0  0  0  0  0  0
   47.2950   66.3980   92.7860 O   0  0  0  0  0  0  0  0  0  0  0  0
   49.9530   65.9420   92.1860 O   0  0  0  0  0  0  0  0  0  0  0  0
   50.0670   64.3550   92.8400 P   0  0  2  0  0  0  0  0  0  0  0  0
   49.6090   63.2990   91.8590 O   0  0  0  0  0  0  0  0  0  0  0  0
   49.0930   64.2720   94.2200 O   0  0  0  0  0  0  0  0  0  0  0  0
   51.6680   64.0410   93.2880 O   0  0  0  0  0  0  0  0  0  0  0  0
   52.0470   70.2630   95.8640 O   0  0  0  0  0  0  0  0  0  0  0  0
   52.0120   71.5950   96.9350 P   0  0  1  0  0  0  0  0  0  0  0  0
   52.8970   72.7120   96.4250 O   0  0  0  0  0  0  0  0  0  0  0  0
   50.4230   72.1610   97.0470 O   0  0  0  0  0  0  0  0  0  0  0  0
   52.5260   71.1090   98.4750 O   0  0  0  0  0  0  0  0  0  0  0  0
  1 11  1  0
  1  2  1  0
  2 10  1  0
  2  6  1  0
  3  1  1  0
  3  4  1  0
  4  5  2  0
  5  6  1  0
  6 23  1  0
  7  4  1  0
  7  9  1  0
  8  7  2  0
 12 13  1  6
 12 15  1  0
 12 11  1  0
 14 13  1  0
 15 16  2  0
 17 15  1  0
 18 19  1  0
 18 12  1  0
 19 22  1  1
 19 21  1  0
 20 19  2  0
 23 24  1  0
 24 26  1  1
 24 27  1  0
 25 24  2  0
M  RAD  6   1   2   2   2   3   3   5   2   6   2  13   3
M  END
>  <MODEL>  (1) 
1

>  <REMARK>  (1) 
 VINA RESULT:    -6.167      0.000      0.000
 INTER + INTRA:         -12.294
 INTER:                 -10.674
 INTRA:                  -1.620
 UNBOUND:                -1.620
  Name = SPQ
  16 active torsions:
  status: ('A' for Active; 'I' for Inactive)
    1  A    between atoms: O_1  and  P_2
    2  A    between atoms: P_2  and  O_3
    3  A    between atoms: P_2  and  O_5
    4  A    between atoms: O_5  and  C_6
    5  A    between atoms: C_6  and  C_7
    6  A    between atoms: C_6  and  C_10
    7  A    between atoms: C_6  and  O_12
    8  A    between atoms: C_7  and  O_8
    9  A    between atoms: O_12  and  C_13
   10  A    between atoms: C_14  and  O_15
   11  A    between atoms: C_17  and  C_18
   12  A    between atoms: C_18  and  O_19
   13  A    between atoms: C_22  and  O_23
   14  A    between atoms: O_23  and  P_24
   15  A    between atoms: P_24  and  O_25
   16  A    between atoms: P_24  and  O_26
                            x       y       z     vdW  Elec       q    Type
                         _______ _______ _______ _____ _____    ______ ____

>  <TORSDO>  (1) 
F 16

$$$$
