SPQ
     RDKit          3D

 27 27  0  0  1  0  0  0  0  0999 V2000
   51.6440   67.1070   93.4790 C   0  0  0  0  0  3  0  0  0  0  0  0
   50.3820   66.3430   93.9070 C   0  0  0  0  0  3  0  0  0  0  0  0
   51.2590   68.1890   92.4590 C   0  0  0  0  0  2  0  0  0  0  0  0
   50.3570   67.6790   91.3530 C   0  0  0  0  0  0  0  0  0  0  0  0
   49.6170   66.5640   91.5110 C   0  0  0  0  0  3  0  0  0  0  0  0
   49.7560   65.6320   92.6910 C   0  0  0  0  0  3  0  0  0  0  0  0
   50.2010   68.5010   90.1300 C   0  0  0  0  0  0  0  0  0  0  0  0
   50.6740   68.0980   89.0330 O   0  0  0  0  0  0  0  0  0  0  0  0
   49.5320   69.7230   90.1760 O   0  0  0  0  0  0  0  0  0  0  0  0
   50.7120   65.4050   94.8990 O   0  0  0  0  0  0  0  0  0  0  0  0
   52.2150   67.7390   94.6200 O   0  0  0  0  0  0  0  0  0  0  0  0
   53.6070   67.4910   94.7870 C   0  0  2  0  0  0  0  0  0  0  0  0
   54.3030   68.2740   93.6460 C   0  0  0  0  0  2  0  0  0  0  0  0
   54.3540   69.6260   93.9400 F   0  0  0  0  0  0  0  0  0  0  0  0
   53.8580   65.9980   94.6310 C   0  0  0  0  0  0  0  0  0  0  0  0
   54.5200   65.5620   93.6490 O   0  0  0  0  0  0  0  0  0  0  0  0
   53.4320   65.1090   95.6150 O   0  0  0  0  0  0  0  0  0  0  0  0
   54.0100   67.9710   96.0740 O   0  0  0  0  0  0  0  0  0  0  0  0
   52.7130   68.4740   97.0860 P   0  0  2  0  0  0  0  0  0  0  0  0
   53.1810   68.8330   98.4780 O   0  0  0  0  0  0  0  0  0  0  0  0
   51.5980   67.2070   97.1980 O   0  0  0  0  0  0  0  0  0  0  0  0
   51.9420   69.8120   96.3960 O   0  0  0  0  0  0  0  0  0  0  0  0
   50.5840   64.5450   92.3150 O   0  0  0  0  0  0  0  0  0  0  0  0
   49.7820   63.0590   92.5780 P   0  0  1  0  0  0  0  0  0  0  0  0
   49.0270   62.6350   91.3370 O   0  0  0  0  0  0  0  0  0  0  0  0
   50.9330   61.8780   92.9520 O   0  0  0  0  0  0  0  0  0  0  0  0
   48.7100   63.2070   93.8820 O   0  0  0  0  0  0  0  0  0  0  0  0
  1  2  1  0
  1 11  1  0
  2 10  1  0
  3  1  1  0
  4  5  2  0
  4  3  1  0
  5  6  1  0
  6 23  1  0
  6  2  1  0
  7  9  1  0
  7  4  1  0
  8  7  2  0
 11 12  1  0
 12 13  1  6
 12 18  1  0
 13 14  1  0
 15 12  1  0
 15 17  1  0
 16 15  2  0
 18 19  1  0
 19 21  1  1
 19 20  2  0
 22 19  1  0
 23 24  1  0
 24 26  1  1
 24 27  1  0
 25 24  2  0
M  RAD  6   1   2   2   2   3   3   5   2   6   2  13   3
M  END
>  <MODEL>  (1) 
3

>  <REMARK>  (1) 
 VINA RESULT:    -6.040      2.354      6.841
 INTER + INTRA:         -12.074
 INTER:                 -10.123
 INTRA:                  -1.951
 UNBOUND:                -1.620
  Name = SPQ
  16 active torsions:
  status: ('A' for Active; 'I' for Inactive)
    1  A    between atoms: O_1  and  P_2
    2  A    between atoms: P_2  and  O_3
    3  A    between atoms: P_2  and  O_5
    4  A    between atoms: O_5  and  C_6
    5  A    between atoms: C_6  and  C_7
    6  A    between atoms: C_6  and  C_10
    7  A    between atoms: C_6  and  O_12
    8  A    between atoms: C_7  and  O_8
    9  A    between atoms: O_12  and  C_13
   10  A    between atoms: C_14  and  O_15
   11  A    between atoms: C_17  and  C_18
   12  A    between atoms: C_18  and  O_19
   13  A    between atoms: C_22  and  O_23
   14  A    between atoms: O_23  and  P_24
   15  A    between atoms: P_24  and  O_25
   16  A    between atoms: P_24  and  O_26
                            x       y       z     vdW  Elec       q    Type
                         _______ _______ _______ _____ _____    ______ ____

>  <TORSDO>  (1) 
F 16

$$$$
