SPQ
     RDKit          3D

 27 27  0  0  1  0  0  0  0  0999 V2000
   52.8110   67.7230   92.1410 C   0  0  0  0  0  3  0  0  0  0  0  0
   54.1600   68.1860   91.5690 C   0  0  0  0  0  3  0  0  0  0  0  0
   52.3480   66.4650   91.3930 C   0  0  0  0  0  2  0  0  0  0  0  0
   52.4470   66.5920   89.8860 C   0  0  0  0  0  0  0  0  0  0  0  0
   53.2690   67.4910   89.3110 C   0  0  0  0  0  3  0  0  0  0  0  0
   54.0020   68.5630   90.0820 C   0  0  0  0  0  3  0  0  0  0  0  0
   51.7150   65.6160   89.0430 C   0  0  0  0  0  0  0  0  0  0  0  0
   51.3880   65.9200   87.8640 O   0  0  0  0  0  0  0  0  0  0  0  0
   51.3830   64.3570   89.5390 O   0  0  0  0  0  0  0  0  0  0  0  0
   54.6290   69.2890   92.3000 O   0  0  0  0  0  0  0  0  0  0  0  0
   52.9770   67.3990   93.5180 O   0  0  0  0  0  0  0  0  0  0  0  0
   51.8900   67.8000   94.3450 C   0  0  2  0  0  0  0  0  0  0  0  0
   52.4230   68.9930   95.1760 C   0  0  0  0  0  2  0  0  0  0  0  0
   53.7980   68.9100   95.3260 F   0  0  0  0  0  0  0  0  0  0  0  0
   51.5210   66.6430   95.2610 C   0  0  0  0  0  0  0  0  0  0  0  0
   51.1810   65.5290   94.7760 O   0  0  0  0  0  0  0  0  0  0  0  0
   51.6350   66.7790   96.6420 O   0  0  0  0  0  0  0  0  0  0  0  0
   50.7950   68.1920   93.5090 O   0  0  0  0  0  0  0  0  0  0  0  0
   49.2630   68.1880   94.2900 P   0  0  2  0  0  0  0  0  0  0  0  0
   48.3370   69.2490   93.7390 O   0  0  0  0  0  0  0  0  0  0  0  0
   49.5020   68.4810   95.9390 O   0  0  0  0  0  0  0  0  0  0  0  0
   48.5390   66.6700   94.1110 O   0  0  0  0  0  0  0  0  0  0  0  0
   53.2680   69.7710   89.9880 O   0  0  0  0  0  0  0  0  0  0  0  0
   53.8970   70.7610   88.7450 P   0  0  1  0  0  0  0  0  0  0  0  0
   53.5010   70.2240   87.3860 O   0  0  0  0  0  0  0  0  0  0  0  0
   53.2720   72.3220   88.9220 O   0  0  0  0  0  0  0  0  0  0  0  0
   55.5850   70.8350   88.8670 O   0  0  0  0  0  0  0  0  0  0  0  0
  1 11  1  0
  2  1  1  0
  2 10  1  0
  3  1  1  0
  4  3  1  0
  5  4  2  0
  5  6  1  0
  6 23  1  0
  6  2  1  0
  7  9  1  0
  7  4  1  0
  8  7  2  0
 11 12  1  0
 12 13  1  1
 12 15  1  0
 13 14  1  0
 15 17  1  0
 16 15  2  0
 18 19  1  0
 18 12  1  0
 19 21  1  1
 20 19  2  0
 22 19  1  0
 24 27  1  6
 24 26  1  0
 24 23  1  0
 25 24  2  0
M  RAD  6   1   2   2   2   3   3   5   2   6   2  13   3
M  END
>  <MODEL>  (1) 
19

>  <REMARK>  (1) 
 VINA RESULT:    -5.508      4.150      6.061
 INTER + INTRA:         -11.152
 INTER:                 -10.711
 INTRA:                  -0.441
 UNBOUND:                -1.620
  Name = SPQ
  16 active torsions:
  status: ('A' for Active; 'I' for Inactive)
    1  A    between atoms: O_1  and  P_2
    2  A    between atoms: P_2  and  O_3
    3  A    between atoms: P_2  and  O_5
    4  A    between atoms: O_5  and  C_6
    5  A    between atoms: C_6  and  C_7
    6  A    between atoms: C_6  and  C_10
    7  A    between atoms: C_6  and  O_12
    8  A    between atoms: C_7  and  O_8
    9  A    between atoms: O_12  and  C_13
   10  A    between atoms: C_14  and  O_15
   11  A    between atoms: C_17  and  C_18
   12  A    between atoms: C_18  and  O_19
   13  A    between atoms: C_22  and  O_23
   14  A    between atoms: O_23  and  P_24
   15  A    between atoms: P_24  and  O_25
   16  A    between atoms: P_24  and  O_26
                            x       y       z     vdW  Elec       q    Type
                         _______ _______ _______ _____ _____    ______ ____

>  <TORSDO>  (1) 
F 16

$$$$
