SPQ
     RDKit          3D

 27 27  0  0  1  0  0  0  0  0999 V2000
   52.2840   68.0260   92.0200 C   0  0  0  0  0  3  0  0  0  0  0  0
   52.2730   68.9910   90.8250 C   0  0  0  0  0  3  0  0  0  0  0  0
   53.3920   68.4450   92.9980 C   0  0  0  0  0  2  0  0  0  0  0  0
   54.7210   68.7150   92.3210 C   0  0  0  0  0  0  0  0  0  0  0  0
   54.7910   69.0110   91.0090 C   0  0  0  0  0  3  0  0  0  0  0  0
   53.6130   68.9120   90.0680 C   0  0  0  0  0  3  0  0  0  0  0  0
   55.9430   68.7770   93.1580 C   0  0  0  0  0  0  0  0  0  0  0  0
   56.2490   67.8060   93.9020 O   0  0  0  0  0  0  0  0  0  0  0  0
   56.7660   69.9010   93.1310 O   0  0  0  0  0  0  0  0  0  0  0  0
   51.2120   68.6630   89.9650 O   0  0  0  0  0  0  0  0  0  0  0  0
   51.0310   68.1020   92.6920 O   0  0  0  0  0  0  0  0  0  0  0  0
   50.4750   66.8360   93.0300 C   0  0  2  0  0  0  0  0  0  0  0  0
   51.6680   65.8480   93.0240 C   0  0  0  0  0  2  0  0  0  0  0  0
   51.9320   65.3910   94.3040 F   0  0  0  0  0  0  0  0  0  0  0  0
   49.4630   66.4470   91.9610 C   0  0  0  0  0  0  0  0  0  0  0  0
   49.8530   65.9960   90.8490 O   0  0  0  0  0  0  0  0  0  0  0  0
   48.0990   66.5080   92.2330 O   0  0  0  0  0  0  0  0  0  0  0  0
   49.8760   66.9270   94.3270 O   0  0  0  0  0  0  0  0  0  0  0  0
   49.4950   68.5280   94.8260 P   0  0  2  0  0  0  0  0  0  0  0  0
   48.6250   68.5490   96.0630 O   0  0  0  0  0  0  0  0  0  0  0  0
   48.6680   69.2990   93.5680 O   0  0  0  0  0  0  0  0  0  0  0  0
   50.9220   69.3810   95.1360 O   0  0  0  0  0  0  0  0  0  0  0  0
   53.6840   67.6730   89.3830 O   0  0  0  0  0  0  0  0  0  0  0  0
   53.9290   67.9250   87.7100 P   0  0  1  0  0  0  0  0  0  0  0  0
   55.3800   68.2500   87.4290 O   0  0  0  0  0  0  0  0  0  0  0  0
   53.5110   66.5130   86.8800 O   0  0  0  0  0  0  0  0  0  0  0  0
   52.9390   69.1880   87.1670 O   0  0  0  0  0  0  0  0  0  0  0  0
  1 11  1  0
  1  3  1  0
  2 10  1  0
  2  1  1  0
  4  3  1  0
  4  7  1  0
  5  4  2  0
  6 23  1  0
  6  2  1  0
  6  5  1  0
  7  8  2  0
  9  7  1  0
 11 12  1  0
 12 13  1  1
 12 18  1  0
 13 14  1  0
 15 17  1  0
 15 12  1  0
 16 15  2  0
 18 19  1  0
 19 22  1  1
 19 20  2  0
 21 19  1  0
 24 23  1  0
 25 24  2  0
 24 26  1  6
 27 24  1  0
M  RAD  6   1   2   2   2   3   3   5   2   6   2  13   3
M  END
>  <MODEL>  (1) 
8

>  <REMARK>  (1) 
 VINA RESULT:    -5.913      3.687      5.861
 INTER + INTRA:         -11.853
 INTER:                 -10.198
 INTRA:                  -1.655
 UNBOUND:                -1.620
  Name = SPQ
  16 active torsions:
  status: ('A' for Active; 'I' for Inactive)
    1  A    between atoms: O_1  and  P_2
    2  A    between atoms: P_2  and  O_3
    3  A    between atoms: P_2  and  O_5
    4  A    between atoms: O_5  and  C_6
    5  A    between atoms: C_6  and  C_7
    6  A    between atoms: C_6  and  C_10
    7  A    between atoms: C_6  and  O_12
    8  A    between atoms: C_7  and  O_8
    9  A    between atoms: O_12  and  C_13
   10  A    between atoms: C_14  and  O_15
   11  A    between atoms: C_17  and  C_18
   12  A    between atoms: C_18  and  O_19
   13  A    between atoms: C_22  and  O_23
   14  A    between atoms: O_23  and  P_24
   15  A    between atoms: P_24  and  O_25
   16  A    between atoms: P_24  and  O_26
                            x       y       z     vdW  Elec       q    Type
                         _______ _______ _______ _____ _____    ______ ____

>  <TORSDO>  (1) 
F 16

$$$$
