SPQ
     RDKit          3D

 27 27  0  0  1  0  0  0  0  0999 V2000
   49.9400   63.6660   90.8790 C   0  0  0  0  0  3  0  0  0  0  0  0
   50.8900   62.9340   89.9180 C   0  0  0  0  0  3  0  0  0  0  0  0
   49.0520   62.6380   91.5940 C   0  0  0  0  0  2  0  0  0  0  0  0
   48.4300   61.6240   90.6550 C   0  0  0  0  0  0  0  0  0  0  0  0
   48.9630   61.3730   89.4430 C   0  0  0  0  0  3  0  0  0  0  0  0
   50.0800   62.1910   88.8380 C   0  0  0  0  0  3  0  0  0  0  0  0
   47.2910   60.8110   91.1420 C   0  0  0  0  0  0  0  0  0  0  0  0
   46.3650   60.4820   90.3520 O   0  0  0  0  0  0  0  0  0  0  0  0
   47.2290   60.3990   92.4720 O   0  0  0  0  0  0  0  0  0  0  0  0
   51.7600   63.8590   89.3190 O   0  0  0  0  0  0  0  0  0  0  0  0
   50.7100   64.3600   91.8550 O   0  0  0  0  0  0  0  0  0  0  0  0
   50.4480   65.7580   91.9160 C   0  0  2  0  0  0  0  0  0  0  0  0
   51.7180   66.3880   92.5400 C   0  0  0  0  0  2  0  0  0  0  0  0
   51.3980   67.1180   93.6730 F   0  0  0  0  0  0  0  0  0  0  0  0
   49.2460   65.9900   92.8210 C   0  0  0  0  0  0  0  0  0  0  0  0
   48.3310   66.7860   92.4730 O   0  0  0  0  0  0  0  0  0  0  0  0
   49.1070   65.2640   94.0000 O   0  0  0  0  0  0  0  0  0  0  0  0
   50.2210   66.2430   90.5880 O   0  0  0  0  0  0  0  0  0  0  0  0
   50.7970   67.8380   90.3030 P   0  0  2  0  0  0  0  0  0  0  0  0
   52.2880   67.9560   90.5270 O   0  0  0  0  0  0  0  0  0  0  0  0
   50.0050   68.8910   91.3640 O   0  0  0  0  0  0  0  0  0  0  0  0
   50.4350   68.2970   88.7160 O   0  0  0  0  0  0  0  0  0  0  0  0
   49.5160   63.1400   87.9490 O   0  0  0  0  0  0  0  0  0  0  0  0
   50.0610   62.8650   86.3530 P   0  0  1  0  0  0  0  0  0  0  0  0
   51.5290   63.2080   86.2250 O   0  0  0  0  0  0  0  0  0  0  0  0
   49.8440   61.2300   85.9770 O   0  0  0  0  0  0  0  0  0  0  0  0
   49.1530   63.7970   85.2670 O   0  0  0  0  0  0  0  0  0  0  0  0
  1  3  1  0
  1 11  1  0
  2 10  1  0
  2  1  1  0
  4  7  1  0
  4  3  1  0
  5  4  2  0
  6 23  1  0
  6  5  1  0
  6  2  1  0
  7  9  1  0
  8  7  2  0
 11 12  1  0
 12 13  1  1
 12 15  1  0
 13 14  1  0
 15 17  1  0
 16 15  2  0
 18 12  1  0
 19 20  2  0
 19 18  1  0
 19 21  1  1
 22 19  1  0
 24 23  1  0
 25 24  2  0
 24 26  1  6
 27 24  1  0
M  RAD  6   1   2   2   2   3   3   5   2   6   2  13   3
M  END
>  <MODEL>  (1) 
13

>  <REMARK>  (1) 
 VINA RESULT:    -5.612      4.492      8.796
 INTER + INTRA:         -11.333
 INTER:                 -10.644
 INTRA:                  -0.689
 UNBOUND:                -1.620
  Name = SPQ
  16 active torsions:
  status: ('A' for Active; 'I' for Inactive)
    1  A    between atoms: O_1  and  P_2
    2  A    between atoms: P_2  and  O_3
    3  A    between atoms: P_2  and  O_5
    4  A    between atoms: O_5  and  C_6
    5  A    between atoms: C_6  and  C_7
    6  A    between atoms: C_6  and  C_10
    7  A    between atoms: C_6  and  O_12
    8  A    between atoms: C_7  and  O_8
    9  A    between atoms: O_12  and  C_13
   10  A    between atoms: C_14  and  O_15
   11  A    between atoms: C_17  and  C_18
   12  A    between atoms: C_18  and  O_19
   13  A    between atoms: C_22  and  O_23
   14  A    between atoms: O_23  and  P_24
   15  A    between atoms: P_24  and  O_25
   16  A    between atoms: P_24  and  O_26
                            x       y       z     vdW  Elec       q    Type
                         _______ _______ _______ _____ _____    ______ ____

>  <TORSDO>  (1) 
F 16

$$$$
