SPQ
     RDKit          3D

 27 27  0  0  1  0  0  0  0  0999 V2000
   53.6370   68.3910   92.1780 C   0  0  0  0  0  3  0  0  0  0  0  0
   54.3940   67.8290   90.9660 C   0  0  0  0  0  3  0  0  0  0  0  0
   52.1460   68.5130   91.8310 C   0  0  0  0  0  2  0  0  0  0  0  0
   51.8920   69.1800   90.4940 C   0  0  0  0  0  0  0  0  0  0  0  0
   52.8440   69.2200   89.5410 C   0  0  0  0  0  3  0  0  0  0  0  0
   54.2740   68.7960   89.7720 C   0  0  0  0  0  3  0  0  0  0  0  0
   50.5290   69.6790   90.1970 C   0  0  0  0  0  0  0  0  0  0  0  0
   49.5330   68.9200   90.3410 O   0  0  0  0  0  0  0  0  0  0  0  0
   50.3300   70.9870   89.7590 O   0  0  0  0  0  0  0  0  0  0  0  0
   55.7450   67.6390   91.3010 O   0  0  0  0  0  0  0  0  0  0  0  0
   53.7770   67.4920   93.2730 O   0  0  0  0  0  0  0  0  0  0  0  0
   53.9910   68.1310   94.5270 C   0  0  2  0  0  0  0  0  0  0  0  0
   52.6640   68.8630   94.8470 C   0  0  0  0  0  2  0  0  0  0  0  0
   52.4380   68.8940   96.2130 F   0  0  0  0  0  0  0  0  0  0  0  0
   55.1240   69.1360   94.3750 C   0  0  0  0  0  0  0  0  0  0  0  0
   54.9550   70.3410   94.7060 O   0  0  0  0  0  0  0  0  0  0  0  0
   56.3810   68.7150   93.9490 O   0  0  0  0  0  0  0  0  0  0  0  0
   54.2880   67.1320   95.5090 O   0  0  0  0  0  0  0  0  0  0  0  0
   54.6560   65.5820   94.8610 P   0  0  2  0  0  0  0  0  0  0  0  0
   55.1940   64.6360   95.9120 O   0  0  0  0  0  0  0  0  0  0  0  0
   55.8250   65.7700   93.6530 O   0  0  0  0  0  0  0  0  0  0  0  0
   53.2670   64.9120   94.1680 O   0  0  0  0  0  0  0  0  0  0  0  0
   55.0530   69.9500   90.0340 O   0  0  0  0  0  0  0  0  0  0  0  0
   55.5870   70.6590   88.5730 P   0  0  1  0  0  0  0  0  0  0  0  0
   55.7030   69.6130   87.4850 O   0  0  0  0  0  0  0  0  0  0  0  0
   54.4640   71.8290   88.0930 O   0  0  0  0  0  0  0  0  0  0  0  0
   57.0870   71.4100   88.8120 O   0  0  0  0  0  0  0  0  0  0  0  0
  1 11  1  0
  2 10  1  0
  2  1  1  0
  3  1  1  0
  4  3  1  0
  5  6  1  0
  5  4  2  0
  6 23  1  0
  6  2  1  0
  7  8  2  0
  7  4  1  0
  9  7  1  0
 11 12  1  0
 12 13  1  1
 12 18  1  0
 13 14  1  0
 15 12  1  0
 15 16  2  0
 17 15  1  0
 19 18  1  0
 19 20  2  0
 19 21  1  6
 22 19  1  0
 24 27  1  1
 24 23  1  0
 25 24  2  0
 26 24  1  0
M  RAD  6   1   2   2   2   3   3   5   2   6   2  13   3
M  END
>  <MODEL>  (1) 
11

>  <REMARK>  (1) 
 VINA RESULT:    -5.769      4.239      6.974
 INTER + INTRA:         -11.605
 INTER:                  -9.809
 INTRA:                  -1.797
 UNBOUND:                -1.620
  Name = SPQ
  16 active torsions:
  status: ('A' for Active; 'I' for Inactive)
    1  A    between atoms: O_1  and  P_2
    2  A    between atoms: P_2  and  O_3
    3  A    between atoms: P_2  and  O_5
    4  A    between atoms: O_5  and  C_6
    5  A    between atoms: C_6  and  C_7
    6  A    between atoms: C_6  and  C_10
    7  A    between atoms: C_6  and  O_12
    8  A    between atoms: C_7  and  O_8
    9  A    between atoms: O_12  and  C_13
   10  A    between atoms: C_14  and  O_15
   11  A    between atoms: C_17  and  C_18
   12  A    between atoms: C_18  and  O_19
   13  A    between atoms: C_22  and  O_23
   14  A    between atoms: O_23  and  P_24
   15  A    between atoms: P_24  and  O_25
   16  A    between atoms: P_24  and  O_26
                            x       y       z     vdW  Elec       q    Type
                         _______ _______ _______ _____ _____    ______ ____

>  <TORSDO>  (1) 
F 16

$$$$
