SPQ
     RDKit          3D

 27 27  0  0  1  0  0  0  0  0999 V2000
   52.4600   67.9090   94.0940 C   0  0  0  0  0  3  0  0  0  0  0  0
   52.2900   67.1930   92.7460 C   0  0  0  0  0  3  0  0  0  0  0  0
   51.1430   67.8300   94.8790 C   0  0  0  0  0  2  0  0  0  0  0  0
   49.9280   68.2020   94.0540 C   0  0  0  0  0  0  0  0  0  0  0  0
   49.9510   68.1420   92.7080 C   0  0  0  0  0  3  0  0  0  0  0  0
   51.2060   67.8980   91.9060 C   0  0  0  0  0  3  0  0  0  0  0  0
   48.6610   68.5130   94.7570 C   0  0  0  0  0  0  0  0  0  0  0  0
   48.6820   69.1420   95.8490 O   0  0  0  0  0  0  0  0  0  0  0  0
   47.4360   68.1190   94.2230 O   0  0  0  0  0  0  0  0  0  0  0  0
   53.5120   67.1910   92.0540 O   0  0  0  0  0  0  0  0  0  0  0  0
   53.4780   67.2530   94.8440 O   0  0  0  0  0  0  0  0  0  0  0  0
   54.3640   68.1380   95.5190 C   0  0  2  0  0  0  0  0  0  0  0  0
   53.5270   68.7660   96.6620 C   0  0  0  0  0  2  0  0  0  0  0  0
   54.3070   68.9630   97.7890 F   0  0  0  0  0  0  0  0  0  0  0  0
   54.8150   69.2160   94.5430 C   0  0  0  0  0  0  0  0  0  0  0  0
   54.6670   70.4350   94.8280 O   0  0  0  0  0  0  0  0  0  0  0  0
   55.4710   68.8650   93.3660 O   0  0  0  0  0  0  0  0  0  0  0  0
   55.4670   67.3830   96.0320 O   0  0  0  0  0  0  0  0  0  0  0  0
   55.6530   65.8250   95.3280 P   0  0  2  0  0  0  0  0  0  0  0  0
   56.9290   65.1450   95.7730 O   0  0  0  0  0  0  0  0  0  0  0  0
   55.6890   65.9970   93.6460 O   0  0  0  0  0  0  0  0  0  0  0  0
   54.3320   64.8540   95.7430 O   0  0  0  0  0  0  0  0  0  0  0  0
   51.7090   69.1450   91.4580 O   0  0  0  0  0  0  0  0  0  0  0  0
   50.9030   69.6420   90.0350 P   0  0  1  0  0  0  0  0  0  0  0  0
   51.8190   70.4830   89.1710 O   0  0  0  0  0  0  0  0  0  0  0  0
   50.4360   68.2690   89.1660 O   0  0  0  0  0  0  0  0  0  0  0  0
   49.5170   70.5280   90.4380 O   0  0  0  0  0  0  0  0  0  0  0  0
  1 11  1  0
  1  3  1  0
  2 10  1  0
  2  1  1  0
  4  7  1  0
  4  3  1  0
  5  4  2  0
  6 23  1  0
  6  5  1  0
  6  2  1  0
  7  8  2  0
  9  7  1  0
 11 12  1  0
 12 18  1  0
 12 13  1  1
 13 14  1  0
 15 16  2  0
 15 12  1  0
 17 15  1  0
 19 22  1  6
 19 20  2  0
 19 18  1  0
 21 19  1  0
 24 27  1  1
 24 23  1  0
 25 24  2  0
 26 24  1  0
M  RAD  6   1   2   2   2   3   3   5   2   6   2  13   3
M  END
>  <MODEL>  (1) 
2

>  <REMARK>  (1) 
 VINA RESULT:    -6.105      3.359      6.393
 INTER + INTRA:         -12.186
 INTER:                 -10.423
 INTRA:                  -1.763
 UNBOUND:                -1.620
  Name = SPQ
  16 active torsions:
  status: ('A' for Active; 'I' for Inactive)
    1  A    between atoms: O_1  and  P_2
    2  A    between atoms: P_2  and  O_3
    3  A    between atoms: P_2  and  O_5
    4  A    between atoms: O_5  and  C_6
    5  A    between atoms: C_6  and  C_7
    6  A    between atoms: C_6  and  C_10
    7  A    between atoms: C_6  and  O_12
    8  A    between atoms: C_7  and  O_8
    9  A    between atoms: O_12  and  C_13
   10  A    between atoms: C_14  and  O_15
   11  A    between atoms: C_17  and  C_18
   12  A    between atoms: C_18  and  O_19
   13  A    between atoms: C_22  and  O_23
   14  A    between atoms: O_23  and  P_24
   15  A    between atoms: P_24  and  O_25
   16  A    between atoms: P_24  and  O_26
                            x       y       z     vdW  Elec       q    Type
                         _______ _______ _______ _____ _____    ______ ____

>  <TORSDO>  (1) 
F 16

$$$$
