SPQ
     RDKit          3D

 27 27  0  0  1  0  0  0  0  0999 V2000
   53.6210   67.8510   94.7710 C   0  0  0  0  0  3  0  0  0  0  0  0
   54.5040   66.8570   94.0010 C   0  0  0  0  0  3  0  0  0  0  0  0
   54.3520   69.1970   94.8810 C   0  0  0  0  0  2  0  0  0  0  0  0
   55.7920   69.0640   95.3350 C   0  0  0  0  0  0  0  0  0  0  0  0
   56.4660   67.9050   95.1950 C   0  0  0  0  0  3  0  0  0  0  0  0
   55.8170   66.6100   94.7690 C   0  0  0  0  0  3  0  0  0  0  0  0
   56.4970   70.2730   95.8220 C   0  0  0  0  0  0  0  0  0  0  0  0
   57.3550   70.1780   96.7410 O   0  0  0  0  0  0  0  0  0  0  0  0
   56.2240   71.5240   95.2720 O   0  0  0  0  0  0  0  0  0  0  0  0
   53.8110   65.6480   93.8250 O   0  0  0  0  0  0  0  0  0  0  0  0
   52.4080   68.0490   94.0530 O   0  0  0  0  0  0  0  0  0  0  0  0
   51.2370   67.9770   94.8590 C   0  0  2  0  0  0  0  0  0  0  0  0
   51.1920   69.3140   95.6390 C   0  0  0  0  0  2  0  0  0  0  0  0
   49.8830   69.7160   95.8490 F   0  0  0  0  0  0  0  0  0  0  0  0
   51.3790   66.8080   95.8230 C   0  0  0  0  0  0  0  0  0  0  0  0
   51.4980   67.0160   97.0620 O   0  0  0  0  0  0  0  0  0  0  0  0
   51.2970   65.5000   95.3550 O   0  0  0  0  0  0  0  0  0  0  0  0
   50.0970   67.8310   94.0040 O   0  0  0  0  0  0  0  0  0  0  0  0
   50.4760   67.4930   92.3610 P   0  0  2  0  0  0  0  0  0  0  0  0
   49.2400   67.2220   91.5330 O   0  0  0  0  0  0  0  0  0  0  0  0
   51.4730   66.1270   92.3110 O   0  0  0  0  0  0  0  0  0  0  0  0
   51.3180   68.7990   91.6930 O   0  0  0  0  0  0  0  0  0  0  0  0
   55.5360   65.8420   95.9260 O   0  0  0  0  0  0  0  0  0  0  0  0
   56.2370   64.2880   95.8010 P   0  0  1  0  0  0  0  0  0  0  0  0
   57.7010   64.3320   96.1840 O   0  0  0  0  0  0  0  0  0  0  0  0
   55.4270   63.2390   96.8510 O   0  0  0  0  0  0  0  0  0  0  0  0
   56.0720   63.7080   94.2180 O   0  0  0  0  0  0  0  0  0  0  0  0
  1 11  1  0
  1  3  1  0
  2 10  1  0
  2  6  1  0
  2  1  1  0
  3  4  1  0
  4  7  1  0
  5  4  2  0
  6  5  1  0
  6 23  1  0
  7  8  2  0
  9  7  1  0
 11 12  1  0
 12 13  1  1
 12 15  1  0
 13 14  1  0
 15 16  2  0
 17 15  1  0
 18 12  1  0
 19 18  1  0
 20 19  2  0
 19 21  1  1
 22 19  1  0
 24 23  1  0
 24 25  2  0
 24 26  1  1
 27 24  1  0
M  RAD  6   1   2   2   2   3   3   5   2   6   2  13   3
M  END
>  <MODEL>  (1) 
20

>  <REMARK>  (1) 
 VINA RESULT:    -5.464      2.904      5.147
 INTER + INTRA:         -11.076
 INTER:                  -9.099
 INTRA:                  -1.977
 UNBOUND:                -1.620
  Name = SPQ
  16 active torsions:
  status: ('A' for Active; 'I' for Inactive)
    1  A    between atoms: O_1  and  P_2
    2  A    between atoms: P_2  and  O_3
    3  A    between atoms: P_2  and  O_5
    4  A    between atoms: O_5  and  C_6
    5  A    between atoms: C_6  and  C_7
    6  A    between atoms: C_6  and  C_10
    7  A    between atoms: C_6  and  O_12
    8  A    between atoms: C_7  and  O_8
    9  A    between atoms: O_12  and  C_13
   10  A    between atoms: C_14  and  O_15
   11  A    between atoms: C_17  and  C_18
   12  A    between atoms: C_18  and  O_19
   13  A    between atoms: C_22  and  O_23
   14  A    between atoms: O_23  and  P_24
   15  A    between atoms: P_24  and  O_25
   16  A    between atoms: P_24  and  O_26
                            x       y       z     vdW  Elec       q    Type
                         _______ _______ _______ _____ _____    ______ ____

>  <TORSDO>  (1) 
F 16

$$$$
