SPQ
     RDKit          3D

 27 27  0  0  1  0  0  0  0  0999 V2000
   52.3810   69.2170   95.0250 C   0  0  0  0  0  3  0  0  0  0  0  0
   53.1800   68.1830   94.2170 C   0  0  0  0  0  3  0  0  0  0  0  0
   50.9280   68.7380   95.1620 C   0  0  0  0  0  2  0  0  0  0  0  0
   50.3220   68.2730   93.8520 C   0  0  0  0  0  0  0  0  0  0  0  0
   51.0980   67.8860   92.8210 C   0  0  0  0  0  3  0  0  0  0  0  0
   52.5980   68.0580   92.7950 C   0  0  0  0  0  3  0  0  0  0  0  0
   48.8500   68.1270   93.7640 C   0  0  0  0  0  0  0  0  0  0  0  0
   48.3450   67.0440   93.3620 O   0  0  0  0  0  0  0  0  0  0  0  0
   48.0080   69.1780   94.1240 O   0  0  0  0  0  0  0  0  0  0  0  0
   54.5280   68.5730   94.1550 O   0  0  0  0  0  0  0  0  0  0  0  0
   52.9470   69.3300   96.3270 O   0  0  0  0  0  0  0  0  0  0  0  0
   53.0400   70.6670   96.8060 C   0  0  2  0  0  0  0  0  0  0  0  0
   51.7380   71.3620   96.3380 C   0  0  0  0  0  2  0  0  0  0  0  0
   51.3630   72.3520   97.2310 F   0  0  0  0  0  0  0  0  0  0  0  0
   54.2510   71.3310   96.1680 C   0  0  0  0  0  0  0  0  0  0  0  0
   54.1650   72.5020   95.7050 O   0  0  0  0  0  0  0  0  0  0  0  0
   55.4840   70.6840   96.1630 O   0  0  0  0  0  0  0  0  0  0  0  0
   53.1350   70.6380   98.2350 O   0  0  0  0  0  0  0  0  0  0  0  0
   53.4730   69.0870   98.8960 P   0  0  2  0  0  0  0  0  0  0  0  0
   53.5710   69.1180  100.4050 O   0  0  0  0  0  0  0  0  0  0  0  0
   54.9470   68.5460   98.2680 O   0  0  0  0  0  0  0  0  0  0  0  0
   52.2600   67.9990   98.4410 O   0  0  0  0  0  0  0  0  0  0  0  0
   52.9070   69.2320   92.0650 O   0  0  0  0  0  0  0  0  0  0  0  0
   53.9070   68.8620   90.7290 P   0  0  1  0  0  0  0  0  0  0  0  0
   55.1440   68.1150   91.1800 O   0  0  0  0  0  0  0  0  0  0  0  0
   53.0390   67.8880   89.6530 O   0  0  0  0  0  0  0  0  0  0  0  0
   54.3530   70.2890   89.9320 O   0  0  0  0  0  0  0  0  0  0  0  0
  1  3  1  0
  1 11  1  0
  2 10  1  0
  2  1  1  0
  4  3  1  0
  5  4  2  0
  6 23  1  0
  6  5  1  0
  6  2  1  0
  7  4  1  0
  7  9  1  0
  8  7  2  0
 11 12  1  0
 12 13  1  1
 12 18  1  0
 13 14  1  0
 15 12  1  0
 16 15  2  0
 17 15  1  0
 18 19  1  0
 19 20  2  0
 19 21  1  6
 22 19  1  0
 24 25  2  0
 24 23  1  0
 24 26  1  6
 27 24  1  0
M  RAD  6   1   2   2   2   3   3   5   2   6   2  13   3
M  END
>  <MODEL>  (1) 
12

>  <REMARK>  (1) 
 VINA RESULT:    -5.622      3.080      6.863
 INTER + INTRA:         -11.351
 INTER:                  -9.743
 INTRA:                  -1.608
 UNBOUND:                -1.620
  Name = SPQ
  16 active torsions:
  status: ('A' for Active; 'I' for Inactive)
    1  A    between atoms: O_1  and  P_2
    2  A    between atoms: P_2  and  O_3
    3  A    between atoms: P_2  and  O_5
    4  A    between atoms: O_5  and  C_6
    5  A    between atoms: C_6  and  C_7
    6  A    between atoms: C_6  and  C_10
    7  A    between atoms: C_6  and  O_12
    8  A    between atoms: C_7  and  O_8
    9  A    between atoms: O_12  and  C_13
   10  A    between atoms: C_14  and  O_15
   11  A    between atoms: C_17  and  C_18
   12  A    between atoms: C_18  and  O_19
   13  A    between atoms: C_22  and  O_23
   14  A    between atoms: O_23  and  P_24
   15  A    between atoms: P_24  and  O_25
   16  A    between atoms: P_24  and  O_26
                            x       y       z     vdW  Elec       q    Type
                         _______ _______ _______ _____ _____    ______ ____

>  <TORSDO>  (1) 
F 16

$$$$
