SPQ
     RDKit          3D

 27 27  0  0  1  0  0  0  0  0999 V2000
   53.1040   68.6260   91.7370 C   0  0  0  0  0  3  0  0  0  0  0  0
   52.3020   67.4190   92.2460 C   0  0  0  0  0  3  0  0  0  0  0  0
   54.2940   68.8750   92.6760 C   0  0  0  0  0  2  0  0  0  0  0  0
   53.9130   68.8740   94.1430 C   0  0  0  0  0  0  0  0  0  0  0  0
   52.7900   68.2670   94.5740 C   0  0  0  0  0  3  0  0  0  0  0  0
   51.7320   67.7160   93.6480 C   0  0  0  0  0  3  0  0  0  0  0  0
   54.8670   69.4450   95.1240 C   0  0  0  0  0  0  0  0  0  0  0  0
   55.0070   68.9070   96.2550 O   0  0  0  0  0  0  0  0  0  0  0  0
   55.6180   70.5750   94.8090 O   0  0  0  0  0  0  0  0  0  0  0  0
   51.2580   67.1350   91.3510 O   0  0  0  0  0  0  0  0  0  0  0  0
   53.6040   68.3370   90.4360 O   0  0  0  0  0  0  0  0  0  0  0  0
   53.3260   69.3450   89.4690 C   0  0  2  0  0  0  0  0  0  0  0  0
   51.8670   69.7870   89.7440 C   0  0  0  0  0  2  0  0  0  0  0  0
   51.7290   71.1540   89.5770 F   0  0  0  0  0  0  0  0  0  0  0  0
   53.4390   68.7330   88.0800 C   0  0  0  0  0  0  0  0  0  0  0  0
   53.6300   67.4940   87.9430 O   0  0  0  0  0  0  0  0  0  0  0  0
   53.2490   69.5230   86.9500 O   0  0  0  0  0  0  0  0  0  0  0  0
   54.2450   70.4270   89.6550 O   0  0  0  0  0  0  0  0  0  0  0  0
   55.8810   70.0460   89.2840 P   0  0  2  0  0  0  0  0  0  0  0  0
   56.8570   70.8710   90.0920 O   0  0  0  0  0  0  0  0  0  0  0  0
   56.1420   70.3500   87.6410 O   0  0  0  0  0  0  0  0  0  0  0  0
   56.1620   68.4040   89.5810 O   0  0  0  0  0  0  0  0  0  0  0  0
   50.6910   68.6700   93.5300 O   0  0  0  0  0  0  0  0  0  0  0  0
   49.3260   68.1860   94.4380 P   0  0  1  0  0  0  0  0  0  0  0  0
   49.6090   68.2910   95.9210 O   0  0  0  0  0  0  0  0  0  0  0  0
   48.0290   69.1990   94.0520 O   0  0  0  0  0  0  0  0  0  0  0  0
   48.9090   66.5920   94.0420 O   0  0  0  0  0  0  0  0  0  0  0  0
  1 11  1  0
  1  2  1  0
  1  3  1  0
  2 10  1  0
  2  6  1  0
  3  4  1  0
  4  5  2  0
  4  7  1  0
  6 23  1  0
  6  5  1  0
  7  8  2  0
  9  7  1  0
 12 18  1  0
 12 13  1  1
 12 11  1  0
 14 13  1  0
 15 12  1  0
 16 15  2  0
 17 15  1  0
 19 22  1  6
 19 18  1  0
 19 20  2  0
 21 19  1  0
 23 24  1  0
 24 25  2  0
 24 26  1  6
 27 24  1  0
M  RAD  6   1   2   2   2   3   3   5   2   6   2  13   3
M  END
>  <MODEL>  (1) 
7

>  <REMARK>  (1) 
 VINA RESULT:    -5.933      4.142      6.016
 INTER + INTRA:         -11.889
 INTER:                 -10.690
 INTRA:                  -1.198
 UNBOUND:                -1.620
  Name = SPQ
  16 active torsions:
  status: ('A' for Active; 'I' for Inactive)
    1  A    between atoms: O_1  and  P_2
    2  A    between atoms: P_2  and  O_3
    3  A    between atoms: P_2  and  O_5
    4  A    between atoms: O_5  and  C_6
    5  A    between atoms: C_6  and  C_7
    6  A    between atoms: C_6  and  C_10
    7  A    between atoms: C_6  and  O_12
    8  A    between atoms: C_7  and  O_8
    9  A    between atoms: O_12  and  C_13
   10  A    between atoms: C_14  and  O_15
   11  A    between atoms: C_17  and  C_18
   12  A    between atoms: C_18  and  O_19
   13  A    between atoms: C_22  and  O_23
   14  A    between atoms: O_23  and  P_24
   15  A    between atoms: P_24  and  O_25
   16  A    between atoms: P_24  and  O_26
                            x       y       z     vdW  Elec       q    Type
                         _______ _______ _______ _____ _____    ______ ____

>  <TORSDO>  (1) 
F 16

$$$$
