SPQ
     RDKit          3D

 27 27  0  0  1  0  0  0  0  0999 V2000
   52.0410   66.9870   90.6340 C   0  0  0  0  0  3  0  0  0  0  0  0
   53.4960   67.4650   90.5050 C   0  0  0  0  0  3  0  0  0  0  0  0
   51.8600   65.6950   89.8240 C   0  0  0  0  0  2  0  0  0  0  0  0
   52.4340   65.7770   88.4240 C   0  0  0  0  0  0  0  0  0  0  0  0
   53.3840   66.6780   88.1090 C   0  0  0  0  0  3  0  0  0  0  0  0
   53.8170   67.7910   89.0330 C   0  0  0  0  0  3  0  0  0  0  0  0
   52.0240   64.7580   87.4290 C   0  0  0  0  0  0  0  0  0  0  0  0
   50.8080   64.4550   87.2990 O   0  0  0  0  0  0  0  0  0  0  0  0
   52.9730   64.1260   86.6270 O   0  0  0  0  0  0  0  0  0  0  0  0
   53.6910   68.6020   91.3060 O   0  0  0  0  0  0  0  0  0  0  0  0
   51.7620   66.7100   92.0020 O   0  0  0  0  0  0  0  0  0  0  0  0
   50.5880   67.3460   92.4960 C   0  0  2  0  0  0  0  0  0  0  0  0
   50.1260   68.2940   91.3620 C   0  0  0  0  0  2  0  0  0  0  0  0
   49.9420   69.5800   91.8430 F   0  0  0  0  0  0  0  0  0  0  0  0
   50.9520   68.1470   93.7380 C   0  0  0  0  0  0  0  0  0  0  0  0
   52.1110   68.6270   93.8680 O   0  0  0  0  0  0  0  0  0  0  0  0
   49.9850   68.4270   94.6990 O   0  0  0  0  0  0  0  0  0  0  0  0
   49.6040   66.3440   92.7740 O   0  0  0  0  0  0  0  0  0  0  0  0
   50.1800   65.0160   93.7030 P   0  0  2  0  0  0  0  0  0  0  0  0
   50.8420   65.4600   94.9880 O   0  0  0  0  0  0  0  0  0  0  0  0
   51.3120   64.1660   92.7760 O   0  0  0  0  0  0  0  0  0  0  0  0
   48.8950   63.9790   94.0680 O   0  0  0  0  0  0  0  0  0  0  0  0
   53.1360   68.9780   88.6650 O   0  0  0  0  0  0  0  0  0  0  0  0
   54.2480   70.1950   88.2160 P   0  0  1  0  0  0  0  0  0  0  0  0
   55.2980   69.6370   87.2780 O   0  0  0  0  0  0  0  0  0  0  0  0
   53.4110   71.4350   87.4280 O   0  0  0  0  0  0  0  0  0  0  0  0
   54.9900   70.8340   89.5980 O   0  0  0  0  0  0  0  0  0  0  0  0
  1 11  1  0
  2  1  1  0
  2 10  1  0
  3  1  1  0
  4  3  1  0
  5  4  2  0
  5  6  1  0
  6 23  1  0
  6  2  1  0
  7  4  1  0
  8  7  2  0
  9  7  1  0
 11 12  1  0
 12 13  1  6
 12 18  1  0
 12 15  1  0
 13 14  1  0
 15 16  2  0
 15 17  1  0
 18 19  1  0
 19 22  1  1
 19 20  2  0
 21 19  1  0
 24 23  1  0
 24 27  1  1
 25 24  2  0
 26 24  1  0
M  RAD  6   1   2   2   2   3   3   5   2   6   2  13   3
M  END
>  <MODEL>  (1) 
14

>  <REMARK>  (1) 
 VINA RESULT:    -5.609      4.399      6.305
 INTER + INTRA:         -11.328
 INTER:                  -9.707
 INTRA:                  -1.621
 UNBOUND:                -1.620
  Name = SPQ
  16 active torsions:
  status: ('A' for Active; 'I' for Inactive)
    1  A    between atoms: O_1  and  P_2
    2  A    between atoms: P_2  and  O_3
    3  A    between atoms: P_2  and  O_5
    4  A    between atoms: O_5  and  C_6
    5  A    between atoms: C_6  and  C_7
    6  A    between atoms: C_6  and  C_10
    7  A    between atoms: C_6  and  O_12
    8  A    between atoms: C_7  and  O_8
    9  A    between atoms: O_12  and  C_13
   10  A    between atoms: C_14  and  O_15
   11  A    between atoms: C_17  and  C_18
   12  A    between atoms: C_18  and  O_19
   13  A    between atoms: C_22  and  O_23
   14  A    between atoms: O_23  and  P_24
   15  A    between atoms: P_24  and  O_25
   16  A    between atoms: P_24  and  O_26
                            x       y       z     vdW  Elec       q    Type
                         _______ _______ _______ _____ _____    ______ ____

>  <TORSDO>  (1) 
F 16

$$$$
