SPQ
     RDKit          3D

 27 27  0  0  1  0  0  0  0  0999 V2000
   52.4970   65.7540   89.3000 C   0  0  0  0  0  3  0  0  0  0  0  0
   52.8290   64.6320   88.3050 C   0  0  0  0  0  3  0  0  0  0  0  0
   52.5630   65.1990   90.7300 C   0  0  0  0  0  2  0  0  0  0  0  0
   51.8210   63.8890   90.9020 C   0  0  0  0  0  0  0  0  0  0  0  0
   51.5550   63.0920   89.8480 C   0  0  0  0  0  3  0  0  0  0  0  0
   51.7840   63.5030   88.4130 C   0  0  0  0  0  3  0  0  0  0  0  0
   51.5020   63.4290   92.2740 C   0  0  0  0  0  0  0  0  0  0  0  0
   50.8430   62.3680   92.4480 O   0  0  0  0  0  0  0  0  0  0  0  0
   51.9260   64.1570   93.3840 O   0  0  0  0  0  0  0  0  0  0  0  0
   52.8490   65.1490   87.0000 O   0  0  0  0  0  0  0  0  0  0  0  0
   53.4620   66.7930   89.1690 O   0  0  0  0  0  0  0  0  0  0  0  0
   52.9040   68.0770   88.9130 C   0  0  2  0  0  0  0  0  0  0  0  0
   51.3950   67.8270   88.6670 C   0  0  0  0  0  2  0  0  0  0  0  0
   50.6250   68.5990   89.5210 F   0  0  0  0  0  0  0  0  0  0  0  0
   53.5530   68.6510   87.6620 C   0  0  0  0  0  0  0  0  0  0  0  0
   54.2610   67.9180   86.9180 O   0  0  0  0  0  0  0  0  0  0  0  0
   53.3040   69.9670   87.2840 O   0  0  0  0  0  0  0  0  0  0  0  0
   53.1170   68.9090   90.0580 O   0  0  0  0  0  0  0  0  0  0  0  0
   54.7670   69.2790   90.3730 P   0  0  2  0  0  0  0  0  0  0  0  0
   55.0690   69.3270   91.8540 O   0  0  0  0  0  0  0  0  0  0  0  0
   55.1150   70.7910   89.7000 O   0  0  0  0  0  0  0  0  0  0  0  0
   55.7580   68.1210   89.6400 O   0  0  0  0  0  0  0  0  0  0  0  0
   50.5570   63.9570   87.8700 O   0  0  0  0  0  0  0  0  0  0  0  0
   50.1480   63.0560   86.4750 P   0  0  1  0  0  0  0  0  0  0  0  0
   49.5190   61.7350   86.8610 O   0  0  0  0  0  0  0  0  0  0  0  0
   49.0390   63.9450   85.5590 O   0  0  0  0  0  0  0  0  0  0  0  0
   51.5340   62.7850   85.5390 O   0  0  0  0  0  0  0  0  0  0  0  0
  1 11  1  0
  1  3  1  0
  2 10  1  0
  2  6  1  0
  2  1  1  0
  3  4  1  0
  4  7  1  0
  5  4  2  0
  6 23  1  0
  6  5  1  0
  7  8  2  0
  7  9  1  0
 12 13  1  6
 12 11  1  0
 12 18  1  0
 13 14  1  0
 15 12  1  0
 16 15  2  0
 17 15  1  0
 18 19  1  0
 19 20  2  0
 19 21  1  6
 22 19  1  0
 24 25  2  0
 24 23  1  0
 24 26  1  6
 27 24  1  0
M  RAD  6   1   2   2   2   3   3   5   2   6   2  13   3
M  END
>  <MODEL>  (1) 
15

>  <REMARK>  (1) 
 VINA RESULT:    -5.600      5.190      8.888
 INTER + INTRA:         -11.312
 INTER:                  -9.684
 INTRA:                  -1.628
 UNBOUND:                -1.620
  Name = SPQ
  16 active torsions:
  status: ('A' for Active; 'I' for Inactive)
    1  A    between atoms: O_1  and  P_2
    2  A    between atoms: P_2  and  O_3
    3  A    between atoms: P_2  and  O_5
    4  A    between atoms: O_5  and  C_6
    5  A    between atoms: C_6  and  C_7
    6  A    between atoms: C_6  and  C_10
    7  A    between atoms: C_6  and  O_12
    8  A    between atoms: C_7  and  O_8
    9  A    between atoms: O_12  and  C_13
   10  A    between atoms: C_14  and  O_15
   11  A    between atoms: C_17  and  C_18
   12  A    between atoms: C_18  and  O_19
   13  A    between atoms: C_22  and  O_23
   14  A    between atoms: O_23  and  P_24
   15  A    between atoms: P_24  and  O_25
   16  A    between atoms: P_24  and  O_26
                            x       y       z     vdW  Elec       q    Type
                         _______ _______ _______ _____ _____    ______ ____

>  <TORSDO>  (1) 
F 16

$$$$
