SPQ
     RDKit          3D

 27 27  0  0  1  0  0  0  0  0999 V2000
   51.2640   67.4680   91.6540 C   0  0  0  0  0  3  0  0  0  0  0  0
   51.8490   66.2050   92.3040 C   0  0  0  0  0  3  0  0  0  0  0  0
   50.7250   68.3990   92.7510 C   0  0  0  0  0  2  0  0  0  0  0  0
   49.8580   67.6870   93.7710 C   0  0  0  0  0  0  0  0  0  0  0  0
   49.9450   66.3550   93.9560 C   0  0  0  0  0  3  0  0  0  0  0  0
   50.7440   65.4400   93.0600 C   0  0  0  0  0  3  0  0  0  0  0  0
   48.9970   68.5010   94.6600 C   0  0  0  0  0  0  0  0  0  0  0  0
   49.1880   68.4930   95.9060 O   0  0  0  0  0  0  0  0  0  0  0  0
   47.9710   69.2840   94.1340 O   0  0  0  0  0  0  0  0  0  0  0  0
   52.4150   65.3850   91.3150 O   0  0  0  0  0  0  0  0  0  0  0  0
   52.2960   68.1480   90.9470 O   0  0  0  0  0  0  0  0  0  0  0  0
   51.8660   68.7580   89.7350 C   0  0  2  0  0  0  0  0  0  0  0  0
   50.4580   69.3270   90.0380 C   0  0  0  0  0  2  0  0  0  0  0  0
   50.5190   70.6920   90.2640 F   0  0  0  0  0  0  0  0  0  0  0  0
   51.7800   67.6890   88.6540 C   0  0  0  0  0  0  0  0  0  0  0  0
   52.6110   66.7400   88.6300 O   0  0  0  0  0  0  0  0  0  0  0  0
   50.7350   67.7050   87.7350 O   0  0  0  0  0  0  0  0  0  0  0  0
   52.7880   69.7970   89.3890 O   0  0  0  0  0  0  0  0  0  0  0  0
   54.3740   69.5810   90.0170 P   0  0  2  0  0  0  0  0  0  0  0  0
   55.2980   70.7170   89.6390 O   0  0  0  0  0  0  0  0  0  0  0  0
   55.0050   68.1400   89.3960 O   0  0  0  0  0  0  0  0  0  0  0  0
   54.3060   69.4580   91.7030 O   0  0  0  0  0  0  0  0  0  0  0  0
   49.8670   64.8470   92.1180 O   0  0  0  0  0  0  0  0  0  0  0  0
   49.5540   63.2180   92.5310 P   0  0  1  0  0  0  0  0  0  0  0  0
   48.8870   62.4960   91.3790 O   0  0  0  0  0  0  0  0  0  0  0  0
   51.0210   62.4540   92.8820 O   0  0  0  0  0  0  0  0  0  0  0  0
   48.5630   63.1530   93.9040 O   0  0  0  0  0  0  0  0  0  0  0  0
  1 11  1  0
  1  2  1  0
  1  3  1  0
  2 10  1  0
  2  6  1  0
  3  4  1  0
  4  5  2  0
  4  7  1  0
  6 23  1  0
  6  5  1  0
  7  8  2  0
  9  7  1  0
 12 13  1  1
 12 11  1  0
 13 14  1  0
 15 12  1  0
 16 15  2  0
 17 15  1  0
 18 12  1  0
 18 19  1  0
 19 22  1  1
 20 19  2  0
 21 19  1  0
 23 24  1  0
 24 26  1  1
 24 27  1  0
 25 24  2  0
M  RAD  6   1   2   2   2   3   3   5   2   6   2  13   3
M  END
>  <MODEL>  (1) 
4

>  <REMARK>  (1) 
 VINA RESULT:    -6.011      3.394      6.912
 INTER + INTRA:         -12.024
 INTER:                 -10.889
 INTRA:                  -1.135
 UNBOUND:                -1.620
  Name = SPQ
  16 active torsions:
  status: ('A' for Active; 'I' for Inactive)
    1  A    between atoms: O_1  and  P_2
    2  A    between atoms: P_2  and  O_3
    3  A    between atoms: P_2  and  O_5
    4  A    between atoms: O_5  and  C_6
    5  A    between atoms: C_6  and  C_7
    6  A    between atoms: C_6  and  C_10
    7  A    between atoms: C_6  and  O_12
    8  A    between atoms: C_7  and  O_8
    9  A    between atoms: O_12  and  C_13
   10  A    between atoms: C_14  and  O_15
   11  A    between atoms: C_17  and  C_18
   12  A    between atoms: C_18  and  O_19
   13  A    between atoms: C_22  and  O_23
   14  A    between atoms: O_23  and  P_24
   15  A    between atoms: P_24  and  O_25
   16  A    between atoms: P_24  and  O_26
                            x       y       z     vdW  Elec       q    Type
                         _______ _______ _______ _____ _____    ______ ____

>  <TORSDO>  (1) 
F 16

$$$$
