SPQ
     RDKit          3D

 27 27  0  0  1  0  0  0  0  0999 V2000
   53.2590   67.6100   94.5470 C   0  0  0  0  0  3  0  0  0  0  0  0
   53.3970   66.1930   93.9690 C   0  0  0  0  0  3  0  0  0  0  0  0
   54.1020   68.5820   93.7090 C   0  0  0  0  0  2  0  0  0  0  0  0
   55.5080   68.0840   93.4430 C   0  0  0  0  0  0  0  0  0  0  0  0
   55.8120   66.7730   93.5210 C   0  0  0  0  0  3  0  0  0  0  0  0
   54.8640   65.7270   94.0550 C   0  0  0  0  0  3  0  0  0  0  0  0
   56.5250   69.0510   92.9670 C   0  0  0  0  0  0  0  0  0  0  0  0
   56.3830   69.6180   91.8500 O   0  0  0  0  0  0  0  0  0  0  0  0
   57.6440   69.3450   93.7430 O   0  0  0  0  0  0  0  0  0  0  0  0
   52.5670   65.3110   94.6800 O   0  0  0  0  0  0  0  0  0  0  0  0
   51.8940   68.0110   94.4740 O   0  0  0  0  0  0  0  0  0  0  0  0
   51.4110   68.6440   95.6540 C   0  0  2  0  0  0  0  0  0  0  0  0
   52.1640   69.9960   95.7320 C   0  0  0  0  0  2  0  0  0  0  0  0
   51.4030   70.9430   96.3980 F   0  0  0  0  0  0  0  0  0  0  0  0
   51.7630   67.7750   96.8530 C   0  0  0  0  0  0  0  0  0  0  0  0
   51.4320   66.5590   96.8770 O   0  0  0  0  0  0  0  0  0  0  0  0
   52.5250   68.2960   97.8960 O   0  0  0  0  0  0  0  0  0  0  0  0
   49.9980   68.8370   95.5280 O   0  0  0  0  0  0  0  0  0  0  0  0
   49.2720   67.9680   94.2330 P   0  0  2  0  0  0  0  0  0  0  0  0
   47.7620   68.0140   94.2900 O   0  0  0  0  0  0  0  0  0  0  0  0
   49.7700   66.3540   94.3260 O   0  0  0  0  0  0  0  0  0  0  0  0
   49.7930   68.6090   92.7570 O   0  0  0  0  0  0  0  0  0  0  0  0
   55.1880   65.4720   95.4110 O   0  0  0  0  0  0  0  0  0  0  0  0
   56.0930   64.0290   95.5510 P   0  0  1  0  0  0  0  0  0  0  0  0
   56.1020   63.2770   94.2370 O   0  0  0  0  0  0  0  0  0  0  0  0
   57.6830   64.4220   95.9700 O   0  0  0  0  0  0  0  0  0  0  0  0
   55.4340   63.0530   96.7690 O   0  0  0  0  0  0  0  0  0  0  0  0
  1 11  1  0
  2  6  1  0
  2  1  1  0
  2 10  1  0
  3  1  1  0
  4  5  2  0
  4  3  1  0
  5  6  1  0
  6 23  1  0
  7  4  1  0
  7  9  1  0
  8  7  2  0
 11 12  1  0
 12 13  1  1
 12 15  1  0
 13 14  1  0
 15 16  2  0
 15 17  1  0
 18 12  1  0
 19 20  2  0
 19 21  1  6
 19 18  1  0
 22 19  1  0
 23 24  1  0
 24 26  1  1
 24 27  1  0
 25 24  2  0
M  RAD  6   1   2   2   2   3   3   5   2   6   2  13   3
M  END
>  <MODEL>  (1) 
9

>  <REMARK>  (1) 
 VINA RESULT:    -5.910      2.869      5.409
 INTER + INTRA:         -11.849
 INTER:                 -10.081
 INTRA:                  -1.768
 UNBOUND:                -1.620
  Name = SPQ
  16 active torsions:
  status: ('A' for Active; 'I' for Inactive)
    1  A    between atoms: O_1  and  P_2
    2  A    between atoms: P_2  and  O_3
    3  A    between atoms: P_2  and  O_5
    4  A    between atoms: O_5  and  C_6
    5  A    between atoms: C_6  and  C_7
    6  A    between atoms: C_6  and  C_10
    7  A    between atoms: C_6  and  O_12
    8  A    between atoms: C_7  and  O_8
    9  A    between atoms: O_12  and  C_13
   10  A    between atoms: C_14  and  O_15
   11  A    between atoms: C_17  and  C_18
   12  A    between atoms: C_18  and  O_19
   13  A    between atoms: C_22  and  O_23
   14  A    between atoms: O_23  and  P_24
   15  A    between atoms: P_24  and  O_25
   16  A    between atoms: P_24  and  O_26
                            x       y       z     vdW  Elec       q    Type
                         _______ _______ _______ _____ _____    ______ ____

>  <TORSDO>  (1) 
F 16

$$$$
