RIP
     RDKit          3D

 10 10  0  0  1  0  0  0  0  0999 V2000
   59.8460   27.1440    5.5970 C   0  0  0  0  0  3  0  0  0  0  0  0
   60.9160   26.0160    5.6910 C   0  0  0  0  0  3  0  0  0  0  0  0
   60.3090   24.6320    5.3920 C   0  0  0  0  0  3  0  0  0  0  0  0
   58.9380   24.5260    6.0740 C   0  0  0  0  0  3  0  0  0  0  0  0
   58.0070   25.6780    5.6150 C   0  0  0  0  0  2  0  0  0  0  0  0
   58.6850   26.7070    4.9070 O   0  0  0  0  0  0  0  0  0  0  0  0
   59.5040   27.6230    6.8750 O   0  0  0  0  0  0  0  0  0  0  0  0
   61.9740   26.2630    4.8000 O   0  0  0  0  0  0  0  0  0  0  0  0
   60.1780   24.4570    4.0020 O   0  0  0  0  0  0  0  0  0  0  0  0
   58.3600   23.2770    5.7920 O   0  0  0  0  0  0  0  0  0  0  0  0
  1  2  1  0
  1  7  1  0
  2  8  1  0
  3  9  1  0
  3  2  1  0
  3  4  1  0
  4 10  1  0
  5  4  1  0
  6  1  1  0
  6  5  1  0
M  RAD  5   1   2   2   2   3   2   4   2   5   3
M  END
>  <MODEL>  (1) 
15

>  <REMARK>  (1) 
 VINA RESULT:    -4.229      2.368      3.435
 INTER + INTRA:          -4.724
 INTER:                  -4.724
 INTRA:                   0.000
 UNBOUND:                 0.000
  Name = RIP
  4 active torsions:
  status: ('A' for Active; 'I' for Inactive)
    1  A    between atoms: C_1  and  O_6
    2  A    between atoms: C_2  and  O_7
    3  A    between atoms: C_3  and  O_8
    4  A    between atoms: C_4  and  O_9
                            x       y       z     vdW  Elec       q    Type
                         _______ _______ _______ _____ _____    ______ ____

>  <TORSDO>  (1) 
F 4

$$$$
