RIP
     RDKit          3D

 10 10  0  0  1  0  0  0  0  0999 V2000
   61.7910   28.1120    7.0780 C   0  0  0  0  0  3  0  0  0  0  0  0
   61.3410   26.6650    6.7180 C   0  0  0  0  0  3  0  0  0  0  0  0
   60.1740   26.6690    5.7120 C   0  0  0  0  0  3  0  0  0  0  0  0
   59.1770   27.7680    6.1000 C   0  0  0  0  0  3  0  0  0  0  0  0
   59.8840   29.1480    6.1720 C   0  0  0  0  0  2  0  0  0  0  0  0
   61.3020   29.0600    6.1420 O   0  0  0  0  0  0  0  0  0  0  0  0
   61.3870   28.4580    8.3800 O   0  0  0  0  0  0  0  0  0  0  0  0
   62.4140   25.9320    6.1850 O   0  0  0  0  0  0  0  0  0  0  0  0
   60.6640   26.8900    4.4110 O   0  0  0  0  0  0  0  0  0  0  0  0
   58.1180   27.8000    5.1780 O   0  0  0  0  0  0  0  0  0  0  0  0
  1  7  1  0
  2  8  1  0
  2  1  1  0
  3  9  1  0
  3  4  1  0
  3  2  1  0
  4 10  1  0
  4  5  1  0
  6  5  1  0
  6  1  1  0
M  RAD  5   1   2   2   2   3   2   4   2   5   3
M  END
>  <MODEL>  (1) 
13

>  <REMARK>  (1) 
 VINA RESULT:    -4.250      1.674      1.979
 INTER + INTRA:          -4.747
 INTER:                  -4.747
 INTRA:                   0.000
 UNBOUND:                 0.000
  Name = RIP
  4 active torsions:
  status: ('A' for Active; 'I' for Inactive)
    1  A    between atoms: C_1  and  O_6
    2  A    between atoms: C_2  and  O_7
    3  A    between atoms: C_3  and  O_8
    4  A    between atoms: C_4  and  O_9
                            x       y       z     vdW  Elec       q    Type
                         _______ _______ _______ _____ _____    ______ ____

>  <TORSDO>  (1) 
F 4

$$$$
