RIP
     RDKit          3D

 10 10  0  0  1  0  0  0  0  0999 V2000
   60.4930   27.7810    5.9980 C   0  0  0  0  0  3  0  0  0  0  0  0
   61.8860   27.4960    6.6340 C   0  0  0  0  0  3  0  0  0  0  0  0
   62.5030   26.1950    6.0860 C   0  0  0  0  0  3  0  0  0  0  0  0
   61.4090   25.1230    5.9850 C   0  0  0  0  0  3  0  0  0  0  0  0
   60.2330   25.6220    5.1040 C   0  0  0  0  0  2  0  0  0  0  0  0
   60.2880   27.0140    4.8220 O   0  0  0  0  0  0  0  0  0  0  0  0
   59.4580   27.5460    6.9220 O   0  0  0  0  0  0  0  0  0  0  0  0
   62.7670   28.5650    6.3950 O   0  0  0  0  0  0  0  0  0  0  0  0
   63.0750   26.4300    4.8220 O   0  0  0  0  0  0  0  0  0  0  0  0
   61.9500   23.9360    5.4660 O   0  0  0  0  0  0  0  0  0  0  0  0
  1  2  1  0
  1  7  1  0
  2  8  1  0
  3  9  1  0
  3  2  1  0
  4 10  1  0
  4  3  1  0
  5  4  1  0
  6  5  1  0
  6  1  1  0
M  RAD  5   1   2   2   2   3   2   4   2   5   3
M  END
>  <MODEL>  (1) 
3

>  <REMARK>  (1) 
 VINA RESULT:    -4.552      1.173      3.134
 INTER + INTRA:          -5.084
 INTER:                  -5.084
 INTRA:                   0.000
 UNBOUND:                 0.000
  Name = RIP
  4 active torsions:
  status: ('A' for Active; 'I' for Inactive)
    1  A    between atoms: C_1  and  O_6
    2  A    between atoms: C_2  and  O_7
    3  A    between atoms: C_3  and  O_8
    4  A    between atoms: C_4  and  O_9
                            x       y       z     vdW  Elec       q    Type
                         _______ _______ _______ _____ _____    ______ ____

>  <TORSDO>  (1) 
F 4

$$$$
