RIP
     RDKit          3D

 10 10  0  0  1  0  0  0  0  0999 V2000
   62.4000   24.9610    5.5260 C   0  0  0  0  0  3  0  0  0  0  0  0
   63.5570   25.9700    5.2660 C   0  0  0  0  0  3  0  0  0  0  0  0
   63.5400   27.1260    6.2840 C   0  0  0  0  0  3  0  0  0  0  0  0
   62.0900   27.5760    6.5100 C   0  0  0  0  0  3  0  0  0  0  0  0
   61.2130   26.3830    6.9730 C   0  0  0  0  0  2  0  0  0  0  0  0
   61.8480   25.1210    6.8230 O   0  0  0  0  0  0  0  0  0  0  0  0
   61.3950   25.0810    4.5480 O   0  0  0  0  0  0  0  0  0  0  0  0
   64.8020   25.3200    5.3200 O   0  0  0  0  0  0  0  0  0  0  0  0
   64.1160   26.7050    7.4970 O   0  0  0  0  0  0  0  0  0  0  0  0
   62.0550   28.6150    7.4540 O   0  0  0  0  0  0  0  0  0  0  0  0
  1  7  1  0
  1  6  1  0
  2  8  1  0
  2  1  1  0
  2  3  1  0
  3  4  1  0
  3  9  1  0
  4  5  1  0
  4 10  1  0
  6  5  1  0
M  RAD  5   1   2   2   2   3   2   4   2   5   3
M  END
>  <MODEL>  (1) 
2

>  <REMARK>  (1) 
 VINA RESULT:    -4.621      1.523      2.891
 INTER + INTRA:          -5.162
 INTER:                  -5.162
 INTRA:                   0.000
 UNBOUND:                 0.000
  Name = RIP
  4 active torsions:
  status: ('A' for Active; 'I' for Inactive)
    1  A    between atoms: C_1  and  O_6
    2  A    between atoms: C_2  and  O_7
    3  A    between atoms: C_3  and  O_8
    4  A    between atoms: C_4  and  O_9
                            x       y       z     vdW  Elec       q    Type
                         _______ _______ _______ _____ _____    ______ ____

>  <TORSDO>  (1) 
F 4

$$$$
