RIP
     RDKit          3D

 10 10  0  0  1  0  0  0  0  0999 V2000
   61.4530   30.6700    6.6650 C   0  0  0  0  0  3  0  0  0  0  0  0
   60.6620   30.8620    7.9930 C   0  0  0  0  0  3  0  0  0  0  0  0
   60.2710   29.5100    8.6200 C   0  0  0  0  0  3  0  0  0  0  0  0
   59.8010   28.5580    7.5120 C   0  0  0  0  0  3  0  0  0  0  0  0
   60.8980   28.3980    6.4270 C   0  0  0  0  0  2  0  0  0  0  0  0
   61.9490   29.3470    6.5390 O   0  0  0  0  0  0  0  0  0  0  0  0
   60.6590   31.0030    5.5520 O   0  0  0  0  0  0  0  0  0  0  0  0
   61.4190   31.6030    8.9170 O   0  0  0  0  0  0  0  0  0  0  0  0
   61.3740   28.9610    9.3010 O   0  0  0  0  0  0  0  0  0  0  0  0
   59.4630   27.3120    8.0650 O   0  0  0  0  0  0  0  0  0  0  0  0
  1  7  1  0
  1  2  1  0
  2  3  1  0
  2  8  1  0
  3  9  1  0
  4 10  1  0
  4  3  1  0
  5  6  1  0
  5  4  1  0
  6  1  1  0
M  RAD  5   1   2   2   2   3   2   4   2   5   3
M  END
>  <MODEL>  (1) 
7

>  <REMARK>  (1) 
 VINA RESULT:    -4.396      2.647      4.396
 INTER + INTRA:          -4.910
 INTER:                  -4.910
 INTRA:                   0.000
 UNBOUND:                 0.000
  Name = RIP
  4 active torsions:
  status: ('A' for Active; 'I' for Inactive)
    1  A    between atoms: C_1  and  O_6
    2  A    between atoms: C_2  and  O_7
    3  A    between atoms: C_3  and  O_8
    4  A    between atoms: C_4  and  O_9
                            x       y       z     vdW  Elec       q    Type
                         _______ _______ _______ _____ _____    ______ ____

>  <TORSDO>  (1) 
F 4

$$$$
