RIP
     RDKit          3D

 10 10  0  0  1  0  0  0  0  0999 V2000
   63.4670   27.2320    6.3510 C   0  0  0  0  0  3  0  0  0  0  0  0
   62.7520   26.0100    5.7000 C   0  0  0  0  0  3  0  0  0  0  0  0
   61.2240   26.2000    5.6660 C   0  0  0  0  0  3  0  0  0  0  0  0
   60.7630   26.8100    6.9960 C   0  0  0  0  0  3  0  0  0  0  0  0
   61.5060   28.1440    7.2740 C   0  0  0  0  0  2  0  0  0  0  0  0
   62.6140   28.3640    6.4130 O   0  0  0  0  0  0  0  0  0  0  0  0
   63.9470   26.9100    7.6340 O   0  0  0  0  0  0  0  0  0  0  0  0
   63.2240   25.8000    4.3930 O   0  0  0  0  0  0  0  0  0  0  0  0
   60.8680   27.0400    4.5940 O   0  0  0  0  0  0  0  0  0  0  0  0
   59.3730   27.0110    6.9740 O   0  0  0  0  0  0  0  0  0  0  0  0
  1  6  1  0
  1  7  1  0
  2  8  1  0
  2  1  1  0
  3  9  1  0
  3  2  1  0
  3  4  1  0
  4 10  1  0
  4  5  1  0
  6  5  1  0
M  RAD  5   1   2   2   2   3   2   4   2   5   3
M  END
>  <MODEL>  (1) 
1

>  <REMARK>  (1) 
 VINA RESULT:    -4.772      0.000      0.000
 INTER + INTRA:          -5.330
 INTER:                  -5.330
 INTRA:                   0.000
 UNBOUND:                 0.000
  Name = RIP
  4 active torsions:
  status: ('A' for Active; 'I' for Inactive)
    1  A    between atoms: C_1  and  O_6
    2  A    between atoms: C_2  and  O_7
    3  A    between atoms: C_3  and  O_8
    4  A    between atoms: C_4  and  O_9
                            x       y       z     vdW  Elec       q    Type
                         _______ _______ _______ _____ _____    ______ ____

>  <TORSDO>  (1) 
F 4

$$$$
