RIP
     RDKit          3D

 10 10  0  0  1  0  0  0  0  0999 V2000
   62.9880   27.1510    6.8670 C   0  0  0  0  0  3  0  0  0  0  0  0
   61.8170   28.1760    6.8090 C   0  0  0  0  0  3  0  0  0  0  0  0
   60.5020   27.5090    6.3660 C   0  0  0  0  0  3  0  0  0  0  0  0
   60.7940   26.5290    5.2220 C   0  0  0  0  0  3  0  0  0  0  0  0
   61.8570   25.4840    5.6550 C   0  0  0  0  0  2  0  0  0  0  0  0
   62.5130   25.8140    6.8710 O   0  0  0  0  0  0  0  0  0  0  0  0
   63.8850   27.3480    5.8000 O   0  0  0  0  0  0  0  0  0  0  0  0
   61.6320   28.7860    8.0620 O   0  0  0  0  0  0  0  0  0  0  0  0
   59.9180   26.8320    7.4530 O   0  0  0  0  0  0  0  0  0  0  0  0
   59.6080   25.8950    4.8210 O   0  0  0  0  0  0  0  0  0  0  0  0
  1  7  1  0
  1  6  1  0
  2  1  1  0
  2  8  1  0
  3  2  1  0
  3  9  1  0
  4 10  1  0
  4  5  1  0
  4  3  1  0
  5  6  1  0
M  RAD  5   1   2   2   2   3   2   4   2   5   3
M  END
>  <MODEL>  (1) 
5

>  <REMARK>  (1) 
 VINA RESULT:    -4.417      1.351      2.708
 INTER + INTRA:          -4.934
 INTER:                  -4.934
 INTRA:                   0.000
 UNBOUND:                 0.000
  Name = RIP
  4 active torsions:
  status: ('A' for Active; 'I' for Inactive)
    1  A    between atoms: C_1  and  O_6
    2  A    between atoms: C_2  and  O_7
    3  A    between atoms: C_3  and  O_8
    4  A    between atoms: C_4  and  O_9
                            x       y       z     vdW  Elec       q    Type
                         _______ _______ _______ _____ _____    ______ ____

>  <TORSDO>  (1) 
F 4

$$$$
