RIP
     RDKit          3D

 10 10  0  0  1  0  0  0  0  0999 V2000
   59.1970   26.8760    9.2010 C   0  0  0  0  0  3  0  0  0  0  0  0
   59.7710   27.7520    8.0470 C   0  0  0  0  0  3  0  0  0  0  0  0
   60.1650   29.1560    8.5450 C   0  0  0  0  0  3  0  0  0  0  0  0
   59.0900   29.6690    9.5110 C   0  0  0  0  0  3  0  0  0  0  0  0
   58.8880   28.6740   10.6840 C   0  0  0  0  0  2  0  0  0  0  0  0
   59.5140   27.4160   10.4740 O   0  0  0  0  0  0  0  0  0  0  0  0
   57.8050   26.7170    9.0690 O   0  0  0  0  0  0  0  0  0  0  0  0
   60.8900   27.1320    7.4650 O   0  0  0  0  0  0  0  0  0  0  0  0
   61.4160   29.1020    9.1890 O   0  0  0  0  0  0  0  0  0  0  0  0
   59.4460   30.9390    9.9910 O   0  0  0  0  0  0  0  0  0  0  0  0
  1  7  1  0
  1  6  1  0
  2  8  1  0
  2  3  1  0
  2  1  1  0
  3  9  1  0
  3  4  1  0
  4 10  1  0
  4  5  1  0
  6  5  1  0
M  RAD  5   1   2   2   2   3   2   4   2   5   3
M  END
>  <MODEL>  (1) 
12

>  <REMARK>  (1) 
 VINA RESULT:    -4.255      3.206      4.815
 INTER + INTRA:          -4.752
 INTER:                  -4.752
 INTRA:                   0.000
 UNBOUND:                 0.000
  Name = RIP
  4 active torsions:
  status: ('A' for Active; 'I' for Inactive)
    1  A    between atoms: C_1  and  O_6
    2  A    between atoms: C_2  and  O_7
    3  A    between atoms: C_3  and  O_8
    4  A    between atoms: C_4  and  O_9
                            x       y       z     vdW  Elec       q    Type
                         _______ _______ _______ _____ _____    ______ ____

>  <TORSDO>  (1) 
F 4

$$$$
