RIP
     RDKit          3D

 10 10  0  0  1  0  0  0  0  0999 V2000
   61.1310   28.1320    7.1290 C   0  0  0  0  0  3  0  0  0  0  0  0
   60.3480   28.8980    8.2370 C   0  0  0  0  0  3  0  0  0  0  0  0
   59.2480   28.0200    8.8620 C   0  0  0  0  0  3  0  0  0  0  0  0
   58.5420   27.2300    7.7530 C   0  0  0  0  0  3  0  0  0  0  0  0
   59.5650   26.3880    6.9450 C   0  0  0  0  0  2  0  0  0  0  0  0
   60.9180   26.7320    7.2110 O   0  0  0  0  0  0  0  0  0  0  0  0
   60.7870   28.6050    5.8490 O   0  0  0  0  0  0  0  0  0  0  0  0
   61.2220   29.3390    9.2450 O   0  0  0  0  0  0  0  0  0  0  0  0
   59.8140   27.1410    9.8040 O   0  0  0  0  0  0  0  0  0  0  0  0
   57.5500   26.4060    8.3090 O   0  0  0  0  0  0  0  0  0  0  0  0
  1  7  1  0
  1  6  1  0
  1  2  1  0
  2  3  1  0
  2  8  1  0
  3  9  1  0
  4 10  1  0
  4  3  1  0
  5  6  1  0
  5  4  1  0
M  RAD  5   1   2   2   2   3   2   4   2   5   3
M  END
>  <MODEL>  (1) 
17

>  <REMARK>  (1) 
 VINA RESULT:    -4.113      2.367      3.918
 INTER + INTRA:          -4.594
 INTER:                  -4.594
 INTRA:                   0.000
 UNBOUND:                 0.000
  Name = RIP
  4 active torsions:
  status: ('A' for Active; 'I' for Inactive)
    1  A    between atoms: C_1  and  O_6
    2  A    between atoms: C_2  and  O_7
    3  A    between atoms: C_3  and  O_8
    4  A    between atoms: C_4  and  O_9
                            x       y       z     vdW  Elec       q    Type
                         _______ _______ _______ _____ _____    ______ ____

>  <TORSDO>  (1) 
F 4

$$$$
