RIP
     RDKit          3D

 10 10  0  0  1  0  0  0  0  0999 V2000
   60.0330   26.8780    5.0030 C   0  0  0  0  0  3  0  0  0  0  0  0
   59.2320   28.0910    5.5640 C   0  0  0  0  0  3  0  0  0  0  0  0
   60.0620   28.8960    6.5820 C   0  0  0  0  0  3  0  0  0  0  0  0
   60.8260   27.9230    7.4900 C   0  0  0  0  0  3  0  0  0  0  0  0
   61.7110   26.9680    6.6470 C   0  0  0  0  0  2  0  0  0  0  0  0
   61.4230   27.0070    5.2570 O   0  0  0  0  0  0  0  0  0  0  0  0
   59.5500   25.6660    5.5320 O   0  0  0  0  0  0  0  0  0  0  0  0
   58.8250   28.9390    4.5190 O   0  0  0  0  0  0  0  0  0  0  0  0
   60.9610   29.7410    5.9050 O   0  0  0  0  0  0  0  0  0  0  0  0
   61.6060   28.6420    8.4100 O   0  0  0  0  0  0  0  0  0  0  0  0
  1  6  1  0
  1  7  1  0
  1  2  1  0
  2  8  1  0
  2  3  1  0
  3  9  1  0
  3  4  1  0
  4 10  1  0
  5  4  1  0
  6  5  1  0
M  RAD  5   1   2   2   2   3   2   4   2   5   3
M  END
>  <MODEL>  (1) 
10

>  <REMARK>  (1) 
 VINA RESULT:    -4.321      1.885      3.480
 INTER + INTRA:          -4.826
 INTER:                  -4.826
 INTRA:                   0.000
 UNBOUND:                 0.000
  Name = RIP
  4 active torsions:
  status: ('A' for Active; 'I' for Inactive)
    1  A    between atoms: C_1  and  O_6
    2  A    between atoms: C_2  and  O_7
    3  A    between atoms: C_3  and  O_8
    4  A    between atoms: C_4  and  O_9
                            x       y       z     vdW  Elec       q    Type
                         _______ _______ _______ _____ _____    ______ ____

>  <TORSDO>  (1) 
F 4

$$$$
