RIP
     RDKit          3D

 10 10  0  0  1  0  0  0  0  0999 V2000
   58.9000   27.1240    6.1600 C   0  0  0  0  0  3  0  0  0  0  0  0
   60.2060   27.8050    5.6530 C   0  0  0  0  0  3  0  0  0  0  0  0
   61.1740   28.1070    6.8120 C   0  0  0  0  0  3  0  0  0  0  0  0
   60.3770   28.6440    8.0080 C   0  0  0  0  0  3  0  0  0  0  0  0
   59.2710   27.6380    8.4240 C   0  0  0  0  0  2  0  0  0  0  0  0
   59.0560   26.6060    7.4720 O   0  0  0  0  0  0  0  0  0  0  0  0
   57.8140   28.0170    6.1130 O   0  0  0  0  0  0  0  0  0  0  0  0
   60.8520   26.9920    4.7060 O   0  0  0  0  0  0  0  0  0  0  0  0
   61.8690   26.9370    7.1730 O   0  0  0  0  0  0  0  0  0  0  0  0
   61.2430   28.9020    9.0830 O   0  0  0  0  0  0  0  0  0  0  0  0
  1  7  1  0
  1  6  1  0
  2  8  1  0
  2  1  1  0
  2  3  1  0
  3  9  1  0
  3  4  1  0
  4  5  1  0
  4 10  1  0
  6  5  1  0
M  RAD  5   1   2   2   2   3   2   4   2   5   3
M  END
>  <MODEL>  (1) 
19

>  <REMARK>  (1) 
 VINA RESULT:    -4.054      1.886      3.620
 INTER + INTRA:          -4.527
 INTER:                  -4.527
 INTRA:                   0.000
 UNBOUND:                 0.000
  Name = RIP
  4 active torsions:
  status: ('A' for Active; 'I' for Inactive)
    1  A    between atoms: C_1  and  O_6
    2  A    between atoms: C_2  and  O_7
    3  A    between atoms: C_3  and  O_8
    4  A    between atoms: C_4  and  O_9
                            x       y       z     vdW  Elec       q    Type
                         _______ _______ _______ _____ _____    ______ ____

>  <TORSDO>  (1) 
F 4

$$$$
