RIP
     RDKit          3D

 10 10  0  0  1  0  0  0  0  0999 V2000
   61.0910   24.5100    5.5820 C   0  0  0  0  0  3  0  0  0  0  0  0
   61.8960   25.8220    5.8250 C   0  0  0  0  0  3  0  0  0  0  0  0
   60.9750   27.0570    5.8360 C   0  0  0  0  0  3  0  0  0  0  0  0
   59.9390   26.9230    4.7120 C   0  0  0  0  0  3  0  0  0  0  0  0
   59.1390   25.6020    4.8600 C   0  0  0  0  0  2  0  0  0  0  0  0
   59.7030   24.7010    5.8020 O   0  0  0  0  0  0  0  0  0  0  0  0
   61.3180   24.0120    4.2860 O   0  0  0  0  0  0  0  0  0  0  0  0
   62.5980   25.7540    7.0410 O   0  0  0  0  0  0  0  0  0  0  0  0
   60.3320   27.1650    7.0830 O   0  0  0  0  0  0  0  0  0  0  0  0
   59.0770   28.0310    4.7220 O   0  0  0  0  0  0  0  0  0  0  0  0
  1  7  1  0
  1  6  1  0
  1  2  1  0
  2  3  1  0
  2  8  1  0
  3  9  1  0
  4 10  1  0
  4  5  1  0
  4  3  1  0
  5  6  1  0
M  RAD  5   1   2   2   2   3   2   4   2   5   3
M  END
>  <MODEL>  (1) 
6

>  <REMARK>  (1) 
 VINA RESULT:    -4.417      1.874      3.285
 INTER + INTRA:          -4.933
 INTER:                  -4.933
 INTRA:                   0.000
 UNBOUND:                 0.000
  Name = RIP
  4 active torsions:
  status: ('A' for Active; 'I' for Inactive)
    1  A    between atoms: C_1  and  O_6
    2  A    between atoms: C_2  and  O_7
    3  A    between atoms: C_3  and  O_8
    4  A    between atoms: C_4  and  O_9
                            x       y       z     vdW  Elec       q    Type
                         _______ _______ _______ _____ _____    ______ ____

>  <TORSDO>  (1) 
F 4

$$$$
