RIP
     RDKit          3D

 10 10  0  0  1  0  0  0  0  0999 V2000
   59.0320   28.3160    6.5600 C   0  0  0  0  0  3  0  0  0  0  0  0
   59.9690   29.5070    6.9210 C   0  0  0  0  0  3  0  0  0  0  0  0
   60.6610   29.2910    8.2800 C   0  0  0  0  0  3  0  0  0  0  0  0
   59.6490   28.7100    9.2750 C   0  0  0  0  0  3  0  0  0  0  0  0
   59.0320   27.3970    8.7240 C   0  0  0  0  0  2  0  0  0  0  0  0
   59.3140   27.1710    7.3500 O   0  0  0  0  0  0  0  0  0  0  0  0
   57.6790   28.6800    6.6900 O   0  0  0  0  0  0  0  0  0  0  0  0
   60.9430   29.6890    5.9240 O   0  0  0  0  0  0  0  0  0  0  0  0
   61.7540   28.4170    8.1270 O   0  0  0  0  0  0  0  0  0  0  0  0
   60.2700   28.4860   10.5130 O   0  0  0  0  0  0  0  0  0  0  0  0
  1  7  1  0
  1  2  1  0
  1  6  1  0
  2  8  1  0
  2  3  1  0
  3  9  1  0
  3  4  1  0
  4 10  1  0
  5  4  1  0
  6  5  1  0
M  RAD  5   1   2   2   2   3   2   4   2   5   3
M  END
>  <MODEL>  (1) 
18

>  <REMARK>  (1) 
 VINA RESULT:    -4.064      3.113      4.332
 INTER + INTRA:          -4.539
 INTER:                  -4.539
 INTRA:                   0.000
 UNBOUND:                 0.000
  Name = RIP
  4 active torsions:
  status: ('A' for Active; 'I' for Inactive)
    1  A    between atoms: C_1  and  O_6
    2  A    between atoms: C_2  and  O_7
    3  A    between atoms: C_3  and  O_8
    4  A    between atoms: C_4  and  O_9
                            x       y       z     vdW  Elec       q    Type
                         _______ _______ _______ _____ _____    ______ ____

>  <TORSDO>  (1) 
F 4

$$$$
