RIP
     RDKit          3D

 10 10  0  0  1  0  0  0  0  0999 V2000
   60.3910   31.4630    5.8510 C   0  0  0  0  0  3  0  0  0  0  0  0
   60.0250   32.1350    7.2080 C   0  0  0  0  0  3  0  0  0  0  0  0
   60.6580   31.3880    8.3980 C   0  0  0  0  0  3  0  0  0  0  0  0
   60.5340   29.8760    8.1670 C   0  0  0  0  0  3  0  0  0  0  0  0
   61.1840   29.4730    6.8180 C   0  0  0  0  0  2  0  0  0  0  0  0
   61.4940   30.5810    5.9840 O   0  0  0  0  0  0  0  0  0  0  0  0
   59.2840   30.7840    5.3090 O   0  0  0  0  0  0  0  0  0  0  0  0
   60.4430   33.4760    7.2240 O   0  0  0  0  0  0  0  0  0  0  0  0
   62.0110   31.7530    8.5270 O   0  0  0  0  0  0  0  0  0  0  0  0
   61.1270   29.1800    9.2330 O   0  0  0  0  0  0  0  0  0  0  0  0
  1  7  1  0
  1  6  1  0
  1  2  1  0
  2  8  1  0
  2  3  1  0
  3  9  1  0
  4  3  1  0
  4 10  1  0
  5  4  1  0
  6  5  1  0
M  RAD  5   1   2   2   2   3   2   4   2   5   3
M  END
>  <MODEL>  (1) 
16

>  <REMARK>  (1) 
 VINA RESULT:    -4.214      3.658      5.454
 INTER + INTRA:          -4.706
 INTER:                  -4.706
 INTRA:                   0.000
 UNBOUND:                 0.000
  Name = RIP
  4 active torsions:
  status: ('A' for Active; 'I' for Inactive)
    1  A    between atoms: C_1  and  O_6
    2  A    between atoms: C_2  and  O_7
    3  A    between atoms: C_3  and  O_8
    4  A    between atoms: C_4  and  O_9
                            x       y       z     vdW  Elec       q    Type
                         _______ _______ _______ _____ _____    ______ ____

>  <TORSDO>  (1) 
F 4

$$$$
