RIP
     RDKit          3D

 10 10  0  0  1  0  0  0  0  0999 V2000
   62.1840   25.6810    5.6950 C   0  0  0  0  0  3  0  0  0  0  0  0
   61.3030   24.4130    5.4910 C   0  0  0  0  0  3  0  0  0  0  0  0
   59.8300   24.7820    5.2290 C   0  0  0  0  0  3  0  0  0  0  0  0
   59.4230   25.9260    6.1670 C   0  0  0  0  0  3  0  0  0  0  0  0
   60.3660   27.1440    5.9880 C   0  0  0  0  0  2  0  0  0  0  0  0
   61.5310   26.8510    5.2280 O   0  0  0  0  0  0  0  0  0  0  0  0
   62.5500   25.8310    7.0450 O   0  0  0  0  0  0  0  0  0  0  0  0
   61.7870   23.6410    4.4220 O   0  0  0  0  0  0  0  0  0  0  0  0
   59.6660   25.1700    3.8860 O   0  0  0  0  0  0  0  0  0  0  0  0
   58.0890   26.2900    5.9250 O   0  0  0  0  0  0  0  0  0  0  0  0
  1  7  1  0
  2  8  1  0
  2  1  1  0
  3  9  1  0
  3  2  1  0
  3  4  1  0
  4 10  1  0
  5  4  1  0
  6  1  1  0
  6  5  1  0
M  RAD  5   1   2   2   2   3   2   4   2   5   3
M  END
>  <MODEL>  (1) 
9

>  <REMARK>  (1) 
 VINA RESULT:    -4.382      1.793      2.105
 INTER + INTRA:          -4.894
 INTER:                  -4.894
 INTRA:                   0.000
 UNBOUND:                 0.000
  Name = RIP
  4 active torsions:
  status: ('A' for Active; 'I' for Inactive)
    1  A    between atoms: C_1  and  O_6
    2  A    between atoms: C_2  and  O_7
    3  A    between atoms: C_3  and  O_8
    4  A    between atoms: C_4  and  O_9
                            x       y       z     vdW  Elec       q    Type
                         _______ _______ _______ _____ _____    ______ ____

>  <TORSDO>  (1) 
F 4

$$$$
