RIP
     RDKit          3D

 10 10  0  0  1  0  0  0  0  0999 V2000
   59.7400   24.3250    5.3500 C   0  0  0  0  0  3  0  0  0  0  0  0
   61.2820   24.3700    5.1300 C   0  0  0  0  0  3  0  0  0  0  0  0
   61.9020   25.6480    5.7250 C   0  0  0  0  0  3  0  0  0  0  0  0
   60.9910   26.8420    5.4140 C   0  0  0  0  0  3  0  0  0  0  0  0
   59.5560   26.5910    5.9490 C   0  0  0  0  0  2  0  0  0  0  0  0
   59.3280   25.2460    6.3470 O   0  0  0  0  0  0  0  0  0  0  0  0
   59.0510   24.5640    4.1470 O   0  0  0  0  0  0  0  0  0  0  0  0
   61.8960   23.2430    5.7020 O   0  0  0  0  0  0  0  0  0  0  0  0
   62.0570   25.5010    7.1160 O   0  0  0  0  0  0  0  0  0  0  0  0
   61.5310   28.0130    5.9700 O   0  0  0  0  0  0  0  0  0  0  0  0
  1  7  1  0
  1  6  1  0
  2  1  1  0
  2  8  1  0
  2  3  1  0
  3  9  1  0
  4  3  1  0
  4  5  1  0
  4 10  1  0
  5  6  1  0
M  RAD  5   1   2   2   2   3   2   4   2   5   3
M  END
>  <MODEL>  (1) 
14

>  <REMARK>  (1) 
 VINA RESULT:    -4.242      2.094      3.589
 INTER + INTRA:          -4.738
 INTER:                  -4.738
 INTRA:                   0.000
 UNBOUND:                 0.000
  Name = RIP
  4 active torsions:
  status: ('A' for Active; 'I' for Inactive)
    1  A    between atoms: C_1  and  O_6
    2  A    between atoms: C_2  and  O_7
    3  A    between atoms: C_3  and  O_8
    4  A    between atoms: C_4  and  O_9
                            x       y       z     vdW  Elec       q    Type
                         _______ _______ _______ _____ _____    ______ ____

>  <TORSDO>  (1) 
F 4

$$$$
