RIP
     RDKit          3D

 10 10  0  0  1  0  0  0  0  0999 V2000
   65.6220   38.1810    8.5250 C   0  0  0  0  0  3  0  0  0  0  0  0
   64.5440   37.0590    8.6070 C   0  0  0  0  0  3  0  0  0  0  0  0
   65.0460   35.8480    9.4150 C   0  0  0  0  0  3  0  0  0  0  0  0
   66.5050   35.5610    9.0380 C   0  0  0  0  0  3  0  0  0  0  0  0
   67.3880   36.8170    9.2680 C   0  0  0  0  0  2  0  0  0  0  0  0
   66.6380   38.0010    9.5000 O   0  0  0  0  0  0  0  0  0  0  0  0
   66.1860   38.2470    7.2380 O   0  0  0  0  0  0  0  0  0  0  0  0
   63.3630   37.5510    9.1880 O   0  0  0  0  0  0  0  0  0  0  0  0
   64.9410   36.1150   10.7930 O   0  0  0  0  0  0  0  0  0  0  0  0
   66.9860   34.4730    9.7840 O   0  0  0  0  0  0  0  0  0  0  0  0
  1  7  1  0
  1  2  1  0
  1  6  1  0
  2  8  1  0
  2  3  1  0
  3  9  1  0
  4  5  1  0
  4  3  1  0
  4 10  1  0
  5  6  1  0
M  RAD  5   1   2   2   2   3   2   4   2   5   3
M  END
>  <MODEL>  (1) 
11

>  <REMARK>  (1) 
 VINA RESULT:    -4.314     10.021     11.334
 INTER + INTRA:          -4.819
 INTER:                  -4.819
 INTRA:                   0.000
 UNBOUND:                 0.000
  Name = RIP
  4 active torsions:
  status: ('A' for Active; 'I' for Inactive)
    1  A    between atoms: C_1  and  O_6
    2  A    between atoms: C_2  and  O_7
    3  A    between atoms: C_3  and  O_8
    4  A    between atoms: C_4  and  O_9
                            x       y       z     vdW  Elec       q    Type
                         _______ _______ _______ _____ _____    ______ ____

>  <TORSDO>  (1) 
F 4

$$$$
