UDP
 OpenBabel09132600393D

 31 32  0  0  1  0  0  0  0  0999 V2000
   58.1610   18.5380   -7.6580 C   0  0  1  0  0  3  0  0  0  0  0  0
   57.6840   17.1550   -7.1810 C   0  0  1  0  0  3  0  0  0  0  0  0
   56.2190   17.3740   -6.8480 C   0  0  1  0  0  3  0  0  0  0  0  0
   55.9000   18.6700   -7.5840 C   0  0  2  0  0  3  0  0  0  0  0  0
   57.0770   19.4430   -7.6240 O   0  0  0  0  0  0  0  0  0  0  0  0
   59.2720   19.0350   -6.8200 N   0  0  0  0  0  0  0  0  0  0  0  0
   60.5360   19.2270   -7.3290 C   0  0  0  0  0  0  0  0  0  0  0  0
   61.5320   19.7050   -6.5330 N   0  0  0  0  0  0  0  0  0  0  0  0
   61.3030   20.0150   -5.2300 C   0  0  0  0  0  0  0  0  0  0  0  0
   60.0310   19.8480   -4.6930 C   0  0  0  0  0  3  0  0  0  0  0  0
   59.0190   19.3570   -5.5140 C   0  0  0  0  0  3  0  0  0  0  0  0
   60.7880   18.9700   -8.5380 O   0  0  0  0  0  0  0  0  0  0  0  0
   62.2380   20.4560   -4.5100 O   0  0  0  0  0  0  0  0  0  0  0  0
   62.4900   19.8420   -6.9310 H   0  0  0  0  0  0  0  0  0  0  0  0
   57.8720   16.1740   -8.1760 O   0  0  0  0  0  0  0  0  0  0  0  0
   57.6710   16.5860   -9.0570 H   0  0  0  0  0  0  0  0  0  0  0  0
   55.3960   16.3280   -7.2960 O   0  0  0  0  0  0  0  0  0  0  0  0
   54.4630   16.6650   -7.2410 H   0  0  0  0  0  0  0  0  0  0  0  0
   54.7800   19.4570   -6.8980 C   0  0  0  0  0  2  0  0  0  0  0  0
   53.9340   20.0030   -7.8830 O   0  0  0  0  0  0  0  0  0  0  0  0
   52.4510   19.1640   -7.8340 P   0  0  1  0  0  0  0  0  0  0  0  0
   52.6570   17.8810   -7.0590 O   0  0  0  0  0  0  0  0  0  0  0  0
   51.2940   20.1150   -7.0410 O   0  0  0  0  0  0  0  0  0  0  0  0
   51.5910   21.0490   -7.1860 H   0  0  0  0  0  0  0  0  0  0  0  0
   51.9680   18.7950   -9.4260 O   0  0  0  0  0  0  0  0  0  0  0  0
   50.8350   17.5280   -9.3440 P   0  0  0  0  0  0  0  0  0  0  0  0
   49.9840   17.5620  -10.5920 O   0  0  0  0  0  0  0  0  0  0  0  0
   51.6100   16.0250   -9.2490 O   0  0  0  0  0  0  0  0  0  0  0  0
   51.9180   15.9580   -8.3090 H   0  0  0  0  0  0  0  0  0  0  0  0
   49.8320   17.7370   -7.9960 O   0  0  0  0  0  0  0  0  0  0  0  0
   50.3080   18.3920   -7.4260 H   0  0  0  0  0  0  0  0  0  0  0  0
  1  5  1  0  0  0  0
  1  2  1  0  0  0  0
  1  6  1  1  0  0  0
  2 15  1  6  0  0  0
  2  3  1  0  0  0  0
  3 17  1  6  0  0  0
  4 19  1  1  0  0  0
  4  3  1  0  0  0  0
  5  4  1  0  0  0  0
  6 11  1  0  0  0  0
  7  6  1  0  0  0  0
  7  8  1  0  0  0  0
  8  9  1  0  0  0  0
  9 10  1  0  0  0  0
  9 13  2  0  0  0  0
 11 10  2  0  0  0  0
 12  7  2  0  0  0  0
 14  8  1  0  0  0  0
 16 15  1  0  0  0  0
 17 18  1  0  0  0  0
 20 21  1  0  0  0  0
 20 19  1  0  0  0  0
 21 22  2  1  0  0  0
 21 23  1  0  0  0  0
 24 23  1  0  0  0  0
 25 26  1  0  0  0  0
 25 21  1  0  0  0  0
 26 28  1  0  0  0  0
 26 30  1  0  0  0  0
 27 26  2  0  0  0  0
 28 29  1  0  0  0  0
 30 31  1  0  0  0  0
M  END
>  <MODEL>
4

>  <REMARK>
 VINA RESULT:    -7.018      6.080      8.363
 INTER + INTRA:         -11.828
 INTER:                 -10.318
 INTRA:                  -1.511
 UNBOUND:                -1.322
  Name = UDP
  11 active torsions:
  status: ('A' for Active; 'I' for Inactive)
    1  A    between atoms: N_1  and  C_9
    2  A    between atoms: C_10  and  O_11
    3  A    between atoms: C_12  and  O_15
    4  A    between atoms: C_13  and  C_16
    5  A    between atoms: C_16  and  O_17
    6  A    between atoms: O_17  and  P_18
    7  A    between atoms: P_18  and  O_20
    8  A    between atoms: P_18  and  O_21
    9  A    between atoms: O_21  and  P_22
   10  A    between atoms: P_22  and  O_24
   11  A    between atoms: P_22  and  O_25
                            x       y       z     vdW  Elec       q    Type
                         _______ _______ _______ _____ _____    ______ ____

>  <TORSDO>
F 11

$$$$
