UDP
 OpenBabel09132600393D

 31 32  0  0  1  0  0  0  0  0999 V2000
   57.2610   17.8000   -5.6830 C   0  0  1  0  0  3  0  0  0  0  0  0
   56.5650   16.4280   -5.7270 C   0  0  1  0  0  3  0  0  0  0  0  0
   55.8890   16.3240   -4.3720 C   0  0  1  0  0  3  0  0  0  0  0  0
   55.8650   17.7730   -3.8990 C   0  0  2  0  0  3  0  0  0  0  0  0
   56.9890   18.4220   -4.4440 O   0  0  0  0  0  0  0  0  0  0  0  0
   58.7190   17.6630   -5.8810 N   0  0  0  0  0  0  0  0  0  0  0  0
   59.3360   18.0720   -7.0400 C   0  0  0  0  0  0  0  0  0  0  0  0
   60.6860   17.9490   -7.1810 N   0  0  0  0  0  0  0  0  0  0  0  0
   61.4520   17.4360   -6.1840 C   0  0  0  0  0  0  0  0  0  0  0  0
   60.8580   17.0310   -4.9930 C   0  0  0  0  0  3  0  0  0  0  0  0
   59.4780   17.1590   -4.8590 C   0  0  0  0  0  3  0  0  0  0  0  0
   58.6650   18.5710   -7.9840 O   0  0  0  0  0  0  0  0  0  0  0  0
   62.6980   17.3300   -6.3340 O   0  0  0  0  0  0  0  0  0  0  0  0
   61.1410   18.2580   -8.0700 H   0  0  0  0  0  0  0  0  0  0  0  0
   55.6500   16.3500   -6.7960 O   0  0  0  0  0  0  0  0  0  0  0  0
   55.8210   17.1150   -7.4060 H   0  0  0  0  0  0  0  0  0  0  0  0
   54.5870   15.8020   -4.4510 O   0  0  0  0  0  0  0  0  0  0  0  0
   54.1720   16.2090   -5.2560 H   0  0  0  0  0  0  0  0  0  0  0  0
   55.8900   17.8760   -2.3720 C   0  0  0  0  0  2  0  0  0  0  0  0
   56.2660   16.6310   -1.8330 O   0  0  0  0  0  0  0  0  0  0  0  0
   55.0730   16.1530   -0.7140 P   0  0  1  0  0  0  0  0  0  0  0  0
   55.7350   15.3110    0.3550 O   0  0  0  0  0  0  0  0  0  0  0  0
   54.3930   17.5300    0.0040 O   0  0  0  0  0  0  0  0  0  0  0  0
   53.4170   17.3590    0.0050 H   0  0  0  0  0  0  0  0  0  0  0  0
   53.8940   15.2250   -1.5200 O   0  0  0  0  0  0  0  0  0  0  0  0
   54.5280   13.6620   -1.7450 P   0  0  0  0  0  0  0  0  0  0  0  0
   53.8810   13.0510   -2.9670 O   0  0  0  0  0  0  0  0  0  0  0  0
   56.2050   13.7150   -1.9810 O   0  0  0  0  0  0  0  0  0  0  0  0
   56.3600   14.5340   -2.5180 H   0  0  0  0  0  0  0  0  0  0  0  0
   54.1740   12.6960   -0.4010 O   0  0  0  0  0  0  0  0  0  0  0  0
   53.2890   13.0120   -0.0890 H   0  0  0  0  0  0  0  0  0  0  0  0
  1  6  1  1  0  0  0
  1  5  1  0  0  0  0
  2 15  1  6  0  0  0
  2  1  1  0  0  0  0
  2  3  1  0  0  0  0
  3 17  1  6  0  0  0
  3  4  1  0  0  0  0
  4 19  1  1  0  0  0
  5  4  1  0  0  0  0
  6 11  1  0  0  0  0
  7  6  1  0  0  0  0
  8  7  1  0  0  0  0
  8  9  1  0  0  0  0
  9 10  1  0  0  0  0
 10 11  2  0  0  0  0
 12  7  2  0  0  0  0
 13  9  2  0  0  0  0
 14  8  1  0  0  0  0
 16 15  1  0  0  0  0
 18 17  1  0  0  0  0
 19 20  1  0  0  0  0
 20 21  1  0  0  0  0
 21 23  1  0  0  0  0
 21 22  2  1  0  0  0
 23 24  1  0  0  0  0
 25 21  1  0  0  0  0
 26 25  1  0  0  0  0
 26 30  1  0  0  0  0
 27 26  2  0  0  0  0
 28 26  1  0  0  0  0
 29 28  1  0  0  0  0
 30 31  1  0  0  0  0
M  END
>  <MODEL>
20

>  <REMARK>
 VINA RESULT:    -6.404      5.292      7.153
 INTER + INTRA:         -10.909
 INTER:                  -8.937
 INTRA:                  -1.972
 UNBOUND:                -1.322
  Name = UDP
  11 active torsions:
  status: ('A' for Active; 'I' for Inactive)
    1  A    between atoms: N_1  and  C_9
    2  A    between atoms: C_10  and  O_11
    3  A    between atoms: C_12  and  O_15
    4  A    between atoms: C_13  and  C_16
    5  A    between atoms: C_16  and  O_17
    6  A    between atoms: O_17  and  P_18
    7  A    between atoms: P_18  and  O_20
    8  A    between atoms: P_18  and  O_21
    9  A    between atoms: O_21  and  P_22
   10  A    between atoms: P_22  and  O_24
   11  A    between atoms: P_22  and  O_25
                            x       y       z     vdW  Elec       q    Type
                         _______ _______ _______ _____ _____    ______ ____

>  <TORSDO>
F 11

$$$$
