UDP
 OpenBabel09132600393D

 31 32  0  0  1  0  0  0  0  0999 V2000
   58.1530   18.9760   -3.6680 C   0  0  1  0  0  3  0  0  0  0  0  0
   58.2620   18.6840   -2.1610 C   0  0  1  0  0  3  0  0  0  0  0  0
   58.1100   20.0500   -1.5170 C   0  0  1  0  0  3  0  0  0  0  0  0
   57.4820   20.8770   -2.6320 C   0  0  2  0  0  3  0  0  0  0  0  0
   57.9370   20.3590   -3.8600 O   0  0  0  0  0  0  0  0  0  0  0  0
   59.3710   18.5420   -4.3820 N   0  0  0  0  0  0  0  0  0  0  0  0
   59.3700   17.4510   -5.2210 C   0  0  0  0  0  0  0  0  0  0  0  0
   60.5070   17.0890   -5.8800 N   0  0  0  0  0  0  0  0  0  0  0  0
   61.6570   17.7980   -5.7380 C   0  0  0  0  0  0  0  0  0  0  0  0
   61.6820   18.9160   -4.9110 C   0  0  0  0  0  3  0  0  0  0  0  0
   60.5160   19.2770   -4.2400 C   0  0  0  0  0  3  0  0  0  0  0  0
   58.3200   16.7750   -5.3960 O   0  0  0  0  0  0  0  0  0  0  0  0
   62.6970   17.4470   -6.3560 O   0  0  0  0  0  0  0  0  0  0  0  0
   60.4940   16.2540   -6.5090 H   0  0  0  0  0  0  0  0  0  0  0  0
   57.2700   17.7740   -1.7400 O   0  0  0  0  0  0  0  0  0  0  0  0
   56.3960   18.0830   -2.0970 H   0  0  0  0  0  0  0  0  0  0  0  0
   57.2820   20.0290   -0.3820 O   0  0  0  0  0  0  0  0  0  0  0  0
   57.3780   19.1240    0.0160 H   0  0  0  0  0  0  0  0  0  0  0  0
   57.8470   22.3590   -2.5210 C   0  0  0  0  0  2  0  0  0  0  0  0
   58.2970   22.6250   -1.2130 O   0  0  0  0  0  0  0  0  0  0  0  0
   57.8140   24.2050   -0.7950 P   0  0  1  0  0  0  0  0  0  0  0  0
   58.9800   24.8950   -0.1230 O   0  0  0  0  0  0  0  0  0  0  0  0
   57.3970   25.0550   -2.2010 O   0  0  0  0  0  0  0  0  0  0  0  0
   58.2620   25.2600   -2.6390 H   0  0  0  0  0  0  0  0  0  0  0  0
   56.5030   24.1170    0.2890 O   0  0  0  0  0  0  0  0  0  0  0  0
   56.1040   25.7050    0.7500 P   0  0  0  0  0  0  0  0  0  0  0  0
   56.3580   25.8560    2.2330 O   0  0  0  0  0  0  0  0  0  0  0  0
   57.0480   26.8360   -0.0850 O   0  0  0  0  0  0  0  0  0  0  0  0
   56.4310   27.2440   -0.7460 H   0  0  0  0  0  0  0  0  0  0  0  0
   54.4650   26.0000    0.4480 O   0  0  0  0  0  0  0  0  0  0  0  0
   54.0770   26.2080    1.3350 H   0  0  0  0  0  0  0  0  0  0  0  0
  1  6  1  6  0  0  0
  1  2  1  0  0  0  0
  2 15  1  1  0  0  0
  2  3  1  0  0  0  0
  3 17  1  1  0  0  0
  4 19  1  1  0  0  0
  4  3  1  0  0  0  0
  5  1  1  0  0  0  0
  5  4  1  0  0  0  0
  6 11  1  0  0  0  0
  7  6  1  0  0  0  0
  8  9  1  0  0  0  0
  8  7  1  0  0  0  0
  9 10  1  0  0  0  0
 10 11  2  0  0  0  0
 12  7  2  0  0  0  0
 13  9  2  0  0  0  0
 14  8  1  0  0  0  0
 16 15  1  0  0  0  0
 17 18  1  0  0  0  0
 19 20  1  0  0  0  0
 20 21  1  0  0  0  0
 21 22  2  1  0  0  0
 21 25  1  0  0  0  0
 23 21  1  0  0  0  0
 24 23  1  0  0  0  0
 25 26  1  0  0  0  0
 26 27  2  0  0  0  0
 28 26  1  0  0  0  0
 29 28  1  0  0  0  0
 30 26  1  0  0  0  0
 30 31  1  0  0  0  0
M  END
>  <MODEL>
1

>  <REMARK>
 VINA RESULT:    -7.266      0.000      0.000
 INTER + INTRA:         -12.199
 INTER:                 -10.877
 INTRA:                  -1.322
 UNBOUND:                -1.322
  Name = UDP
  11 active torsions:
  status: ('A' for Active; 'I' for Inactive)
    1  A    between atoms: N_1  and  C_9
    2  A    between atoms: C_10  and  O_11
    3  A    between atoms: C_12  and  O_15
    4  A    between atoms: C_13  and  C_16
    5  A    between atoms: C_16  and  O_17
    6  A    between atoms: O_17  and  P_18
    7  A    between atoms: P_18  and  O_20
    8  A    between atoms: P_18  and  O_21
    9  A    between atoms: O_21  and  P_22
   10  A    between atoms: P_22  and  O_24
   11  A    between atoms: P_22  and  O_25
                            x       y       z     vdW  Elec       q    Type
                         _______ _______ _______ _____ _____    ______ ____

>  <TORSDO>
F 11

$$$$
