UDP
 OpenBabel09132600393D

 31 32  0  0  1  0  0  0  0  0999 V2000
   55.7720   14.8230   -2.7690 C   0  0  1  0  0  3  0  0  0  0  0  0
   54.8430   15.9330   -3.2920 C   0  0  1  0  0  3  0  0  0  0  0  0
   55.7860   17.0890   -3.5740 C   0  0  1  0  0  3  0  0  0  0  0  0
   57.1450   16.4040   -3.6370 C   0  0  2  0  0  3  0  0  0  0  0  0
   57.1060   15.2900   -2.7760 O   0  0  0  0  0  0  0  0  0  0  0  0
   55.3830   14.4010   -1.4080 N   0  0  0  0  0  0  0  0  0  0  0  0
   55.6140   13.1240   -0.9500 C   0  0  0  0  0  0  0  0  0  0  0  0
   55.2600   12.7740    0.3180 N   0  0  0  0  0  0  0  0  0  0  0  0
   54.6870   13.6730    1.1610 C   0  0  0  0  0  0  0  0  0  0  0  0
   54.4580   14.9750    0.7310 C   0  0  0  0  0  3  0  0  0  0  0  0
   54.8220   15.3230   -0.5670 C   0  0  0  0  0  3  0  0  0  0  0  0
   56.1610   12.2640   -1.6930 O   0  0  0  0  0  0  0  0  0  0  0  0
   54.3660   13.3290    2.3300 O   0  0  0  0  0  0  0  0  0  0  0  0
   55.4360   11.7990    0.6510 H   0  0  0  0  0  0  0  0  0  0  0  0
   54.1390   15.5160   -4.4400 O   0  0  0  0  0  0  0  0  0  0  0  0
   54.3090   16.1760   -5.1630 H   0  0  0  0  0  0  0  0  0  0  0  0
   55.4980   17.7450   -4.7820 O   0  0  0  0  0  0  0  0  0  0  0  0
   55.2480   17.0360   -5.4310 H   0  0  0  0  0  0  0  0  0  0  0  0
   58.2800   17.3440   -3.2250 C   0  0  0  0  0  2  0  0  0  0  0  0
   58.4120   18.3570   -4.1950 O   0  0  0  0  0  0  0  0  0  0  0  0
   59.8750   18.1050   -5.0320 P   0  0  1  0  0  0  0  0  0  0  0  0
   60.9970   18.7120   -4.2190 O   0  0  0  0  0  0  0  0  0  0  0  0
   60.1470   16.4400   -5.1990 O   0  0  0  0  0  0  0  0  0  0  0  0
   60.1540   16.0900   -4.2730 H   0  0  0  0  0  0  0  0  0  0  0  0
   59.7890   18.8760   -6.5480 O   0  0  0  0  0  0  0  0  0  0  0  0
   58.2090   18.6710   -7.1450 P   0  0  0  0  0  0  0  0  0  0  0  0
   58.2070   18.9870   -8.6230 O   0  0  0  0  0  0  0  0  0  0  0  0
   57.6770   17.0780   -6.9240 O   0  0  0  0  0  0  0  0  0  0  0  0
   56.9060   17.1520   -6.3050 H   0  0  0  0  0  0  0  0  0  0  0  0
   57.1520   19.7360   -6.3610 O   0  0  0  0  0  0  0  0  0  0  0  0
   57.2010   19.4820   -5.4050 H   0  0  0  0  0  0  0  0  0  0  0  0
  1  6  1  1  0  0  0
  2 15  1  6  0  0  0
  2  1  1  0  0  0  0
  3 17  1  6  0  0  0
  3  2  1  0  0  0  0
  4  3  1  0  0  0  0
  4 19  1  1  0  0  0
  4  5  1  0  0  0  0
  5  1  1  0  0  0  0
  6  7  1  0  0  0  0
  6 11  1  0  0  0  0
  7  8  1  0  0  0  0
  8 14  1  0  0  0  0
  8  9  1  0  0  0  0
  9 13  2  0  0  0  0
 10  9  1  0  0  0  0
 11 10  2  0  0  0  0
 12  7  2  0  0  0  0
 16 15  1  0  0  0  0
 18 17  1  0  0  0  0
 20 19  1  0  0  0  0
 21 22  2  1  0  0  0
 21 20  1  0  0  0  0
 23 21  1  0  0  0  0
 23 24  1  0  0  0  0
 25 21  1  0  0  0  0
 26 28  1  0  0  0  0
 26 25  1  0  0  0  0
 26 30  1  0  0  0  0
 27 26  2  0  0  0  0
 28 29  1  0  0  0  0
 30 31  1  0  0  0  0
M  END
>  <MODEL>
15

>  <REMARK>
 VINA RESULT:    -6.597      5.934      8.199
 INTER + INTRA:         -11.197
 INTER:                  -9.160
 INTRA:                  -2.037
 UNBOUND:                -1.322
  Name = UDP
  11 active torsions:
  status: ('A' for Active; 'I' for Inactive)
    1  A    between atoms: N_1  and  C_9
    2  A    between atoms: C_10  and  O_11
    3  A    between atoms: C_12  and  O_15
    4  A    between atoms: C_13  and  C_16
    5  A    between atoms: C_16  and  O_17
    6  A    between atoms: O_17  and  P_18
    7  A    between atoms: P_18  and  O_20
    8  A    between atoms: P_18  and  O_21
    9  A    between atoms: O_21  and  P_22
   10  A    between atoms: P_22  and  O_24
   11  A    between atoms: P_22  and  O_25
                            x       y       z     vdW  Elec       q    Type
                         _______ _______ _______ _____ _____    ______ ____

>  <TORSDO>
F 11

$$$$
