UDP
 OpenBabel09132600393D

 31 32  0  0  1  0  0  0  0  0999 V2000
   58.2630   21.8430   -1.8250 C   0  0  1  0  0  3  0  0  0  0  0  0
   57.7300   20.6240   -1.0510 C   0  0  1  0  0  3  0  0  0  0  0  0
   57.6470   19.5360   -2.1060 C   0  0  1  0  0  3  0  0  0  0  0  0
   58.5460   20.0740   -3.2130 C   0  0  2  0  0  3  0  0  0  0  0  0
   58.4830   21.4800   -3.1730 O   0  0  0  0  0  0  0  0  0  0  0  0
   57.3190   22.9770   -1.7460 N   0  0  0  0  0  0  0  0  0  0  0  0
   57.5800   24.0860   -0.9740 C   0  0  0  0  0  0  0  0  0  0  0  0
   56.6960   25.1220   -0.9390 N   0  0  0  0  0  0  0  0  0  0  0  0
   55.5510   25.0940   -1.6690 C   0  0  0  0  0  0  0  0  0  0  0  0
   55.2700   23.9940   -2.4720 C   0  0  0  0  0  3  0  0  0  0  0  0
   56.1780   22.9390   -2.5010 C   0  0  0  0  0  3  0  0  0  0  0  0
   58.6400   24.1610   -0.2950 O   0  0  0  0  0  0  0  0  0  0  0  0
   54.7470   26.0620   -1.6230 O   0  0  0  0  0  0  0  0  0  0  0  0
   56.9040   25.9560   -0.3440 H   0  0  0  0  0  0  0  0  0  0  0  0
   58.5850   20.2790    0.0160 O   0  0  0  0  0  0  0  0  0  0  0  0
   58.6190   21.0470    0.6450 H   0  0  0  0  0  0  0  0  0  0  0  0
   58.1100   18.2920   -1.6450 O   0  0  0  0  0  0  0  0  0  0  0  0
   58.5870   17.8720   -2.4080 H   0  0  0  0  0  0  0  0  0  0  0  0
   58.1190   19.5690   -4.5940 C   0  0  0  0  0  2  0  0  0  0  0  0
   58.4390   18.2030   -4.7020 O   0  0  0  0  0  0  0  0  0  0  0  0
   59.3600   17.9830   -6.1190 P   0  0  1  0  0  0  0  0  0  0  0  0
   58.4290   17.5370   -7.2260 O   0  0  0  0  0  0  0  0  0  0  0  0
   60.0790   19.4550   -6.5560 O   0  0  0  0  0  0  0  0  0  0  0  0
   61.0190   19.2250   -6.7680 H   0  0  0  0  0  0  0  0  0  0  0  0
   60.5300   16.7770   -5.8410 O   0  0  0  0  0  0  0  0  0  0  0  0
   61.9630   17.5510   -5.3450 P   0  0  0  0  0  0  0  0  0  0  0  0
   62.8610   16.5270   -4.6880 O   0  0  0  0  0  0  0  0  0  0  0  0
   62.7780   18.2270   -6.6660 O   0  0  0  0  0  0  0  0  0  0  0  0
   62.7050   17.5470   -7.3840 H   0  0  0  0  0  0  0  0  0  0  0  0
   61.6040   18.7620   -4.2180 O   0  0  0  0  0  0  0  0  0  0  0  0
   62.3540   18.7360   -3.5710 H   0  0  0  0  0  0  0  0  0  0  0  0
  1  6  1  6  0  0  0
  1  2  1  0  0  0  0
  2 15  1  1  0  0  0
  3 17  1  1  0  0  0
  3  2  1  0  0  0  0
  4 19  1  6  0  0  0
  4  5  1  0  0  0  0
  4  3  1  0  0  0  0
  5  1  1  0  0  0  0
  6  7  1  0  0  0  0
  7  8  1  0  0  0  0
  7 12  2  0  0  0  0
  8 14  1  0  0  0  0
  9 13  2  0  0  0  0
  9  8  1  0  0  0  0
 10  9  1  0  0  0  0
 11 10  2  0  0  0  0
 11  6  1  0  0  0  0
 15 16  1  0  0  0  0
 18 17  1  0  0  0  0
 20 19  1  0  0  0  0
 21 22  2  6  0  0  0
 21 25  1  0  0  0  0
 21 20  1  0  0  0  0
 23 21  1  0  0  0  0
 24 23  1  0  0  0  0
 25 26  1  0  0  0  0
 26 27  2  0  0  0  0
 26 30  1  0  0  0  0
 28 26  1  0  0  0  0
 29 28  1  0  0  0  0
 30 31  1  0  0  0  0
M  END
>  <MODEL>
10

>  <REMARK>
 VINA RESULT:    -6.727      3.889      8.167
 INTER + INTRA:         -11.392
 INTER:                  -9.843
 INTRA:                  -1.549
 UNBOUND:                -1.322
  Name = UDP
  11 active torsions:
  status: ('A' for Active; 'I' for Inactive)
    1  A    between atoms: N_1  and  C_9
    2  A    between atoms: C_10  and  O_11
    3  A    between atoms: C_12  and  O_15
    4  A    between atoms: C_13  and  C_16
    5  A    between atoms: C_16  and  O_17
    6  A    between atoms: O_17  and  P_18
    7  A    between atoms: P_18  and  O_20
    8  A    between atoms: P_18  and  O_21
    9  A    between atoms: O_21  and  P_22
   10  A    between atoms: P_22  and  O_24
   11  A    between atoms: P_22  and  O_25
                            x       y       z     vdW  Elec       q    Type
                         _______ _______ _______ _____ _____    ______ ____

>  <TORSDO>
F 11

$$$$
