UDP
 OpenBabel09132600393D

 31 32  0  0  1  0  0  0  0  0999 V2000
   58.6090   19.2190   -6.5540 C   0  0  1  0  0  3  0  0  0  0  0  0
   57.7510   18.3620   -7.5020 C   0  0  1  0  0  3  0  0  0  0  0  0
   56.4120   18.2720   -6.7930 C   0  0  1  0  0  3  0  0  0  0  0  0
   56.4830   19.4230   -5.7970 C   0  0  2  0  0  3  0  0  0  0  0  0
   57.8320   19.5970   -5.4360 O   0  0  0  0  0  0  0  0  0  0  0  0
   59.8140   18.4850   -6.1180 N   0  0  0  0  0  0  0  0  0  0  0  0
   61.0660   18.7930   -6.6000 C   0  0  0  0  0  0  0  0  0  0  0  0
   62.1590   18.1080   -6.1630 N   0  0  0  0  0  0  0  0  0  0  0  0
   62.0450   17.1210   -5.2360 C   0  0  0  0  0  0  0  0  0  0  0  0
   60.7950   16.8010   -4.7170 C   0  0  0  0  0  3  0  0  0  0  0  0
   59.6830   17.5050   -5.1720 C   0  0  0  0  0  3  0  0  0  0  0  0
   61.2190   19.7140   -7.4480 O   0  0  0  0  0  0  0  0  0  0  0  0
   63.0680   16.5000   -4.8440 O   0  0  0  0  0  0  0  0  0  0  0  0
   63.1040   18.3480   -6.5420 H   0  0  0  0  0  0  0  0  0  0  0  0
   57.6490   18.9530   -8.7780 O   0  0  0  0  0  0  0  0  0  0  0  0
   58.0020   18.3080   -9.4460 H   0  0  0  0  0  0  0  0  0  0  0  0
   55.3220   18.4290   -7.6640 O   0  0  0  0  0  0  0  0  0  0  0  0
   55.3260   17.6360   -8.2620 H   0  0  0  0  0  0  0  0  0  0  0  0
   55.6370   19.1540   -4.5500 C   0  0  0  0  0  2  0  0  0  0  0  0
   55.6270   20.3090   -3.7440 O   0  0  0  0  0  0  0  0  0  0  0  0
   56.2170   19.8880   -2.2020 P   0  0  1  0  0  0  0  0  0  0  0  0
   55.1970   18.9930   -1.5320 O   0  0  0  0  0  0  0  0  0  0  0  0
   57.6750   19.0410   -2.3710 O   0  0  0  0  0  0  0  0  0  0  0  0
   57.5650   18.2310   -1.8110 H   0  0  0  0  0  0  0  0  0  0  0  0
   56.4240   21.3050   -1.2790 O   0  0  0  0  0  0  0  0  0  0  0  0
   57.9630   21.9360   -1.6370 P   0  0  0  0  0  0  0  0  0  0  0  0
   57.9240   23.4360   -1.4510 O   0  0  0  0  0  0  0  0  0  0  0  0
   59.1400   21.2860   -0.6080 O   0  0  0  0  0  0  0  0  0  0  0  0
   59.9640   21.2460   -1.1580 H   0  0  0  0  0  0  0  0  0  0  0  0
   58.3660   21.5990   -3.2460 O   0  0  0  0  0  0  0  0  0  0  0  0
   57.9110   20.7430   -3.4460 H   0  0  0  0  0  0  0  0  0  0  0  0
  1  6  1  1  0  0  0
  1  5  1  0  0  0  0
  2 15  1  6  0  0  0
  2  3  1  0  0  0  0
  2  1  1  0  0  0  0
  3 17  1  6  0  0  0
  3  4  1  0  0  0  0
  4  5  1  0  0  0  0
  4 19  1  1  0  0  0
  6 11  1  0  0  0  0
  7  8  1  0  0  0  0
  7  6  1  0  0  0  0
  8  9  1  0  0  0  0
  9 13  2  0  0  0  0
  9 10  1  0  0  0  0
 11 10  2  0  0  0  0
 12  7  2  0  0  0  0
 14  8  1  0  0  0  0
 16 15  1  0  0  0  0
 18 17  1  0  0  0  0
 19 20  1  0  0  0  0
 20 21  1  0  0  0  0
 21 22  2  1  0  0  0
 21 25  1  0  0  0  0
 23 21  1  0  0  0  0
 23 24  1  0  0  0  0
 26 27  2  0  0  0  0
 26 25  1  0  0  0  0
 26 28  1  0  0  0  0
 29 28  1  0  0  0  0
 30 26  1  0  0  0  0
 31 30  1  0  0  0  0
M  END
>  <MODEL>
17

>  <REMARK>
 VINA RESULT:    -6.475      2.832      4.627
 INTER + INTRA:         -11.014
 INTER:                  -9.074
 INTRA:                  -1.940
 UNBOUND:                -1.322
  Name = UDP
  11 active torsions:
  status: ('A' for Active; 'I' for Inactive)
    1  A    between atoms: N_1  and  C_9
    2  A    between atoms: C_10  and  O_11
    3  A    between atoms: C_12  and  O_15
    4  A    between atoms: C_13  and  C_16
    5  A    between atoms: C_16  and  O_17
    6  A    between atoms: O_17  and  P_18
    7  A    between atoms: P_18  and  O_20
    8  A    between atoms: P_18  and  O_21
    9  A    between atoms: O_21  and  P_22
   10  A    between atoms: P_22  and  O_24
   11  A    between atoms: P_22  and  O_25
                            x       y       z     vdW  Elec       q    Type
                         _______ _______ _______ _____ _____    ______ ____

>  <TORSDO>
F 11

$$$$
