UDP
 OpenBabel09132600393D

 31 32  0  0  1  0  0  0  0  0999 V2000
   57.3170   19.8040   -1.8030 C   0  0  1  0  0  3  0  0  0  0  0  0
   57.8170   20.3560   -0.4570 C   0  0  1  0  0  3  0  0  0  0  0  0
   57.1950   21.7400   -0.3820 C   0  0  1  0  0  3  0  0  0  0  0  0
   56.0740   21.6580   -1.4110 C   0  0  2  0  0  3  0  0  0  0  0  0
   56.4800   20.7610   -2.4190 O   0  0  0  0  0  0  0  0  0  0  0  0
   58.4480   19.4640   -2.6910 N   0  0  0  0  0  0  0  0  0  0  0  0
   58.7870   18.1600   -2.9690 C   0  0  0  0  0  0  0  0  0  0  0  0
   59.8240   17.8820   -3.8070 N   0  0  0  0  0  0  0  0  0  0  0  0
   60.5360   18.8770   -4.3970 C   0  0  0  0  0  0  0  0  0  0  0  0
   60.2050   20.2050   -4.1490 C   0  0  0  0  0  3  0  0  0  0  0  0
   59.1450   20.4790   -3.2890 C   0  0  0  0  0  3  0  0  0  0  0  0
   58.1400   17.2050   -2.4570 O   0  0  0  0  0  0  0  0  0  0  0  0
   61.4920   18.6000   -5.1690 O   0  0  0  0  0  0  0  0  0  0  0  0
   60.0740   16.8860   -4.0060 H   0  0  0  0  0  0  0  0  0  0  0  0
   57.4260   19.5290    0.6160 O   0  0  0  0  0  0  0  0  0  0  0  0
   58.0630   19.6720    1.3640 H   0  0  0  0  0  0  0  0  0  0  0  0
   56.6850   22.0400    0.8920 O   0  0  0  0  0  0  0  0  0  0  0  0
   57.4390   21.9260    1.5270 H   0  0  0  0  0  0  0  0  0  0  0  0
   55.7580   23.0250   -2.0230 C   0  0  0  0  0  2  0  0  0  0  0  0
   56.1420   24.0330   -1.1180 O   0  0  0  0  0  0  0  0  0  0  0  0
   54.7480   24.9050   -0.6700 P   0  0  1  0  0  0  0  0  0  0  0  0
   54.6120   26.0920   -1.5970 O   0  0  0  0  0  0  0  0  0  0  0  0
   53.3860   23.9090   -0.8370 O   0  0  0  0  0  0  0  0  0  0  0  0
   52.6340   24.4450   -0.4770 H   0  0  0  0  0  0  0  0  0  0  0  0
   54.9250   25.4520    0.9330 O   0  0  0  0  0  0  0  0  0  0  0  0
   56.5390   25.9510    1.1360 P   0  0  0  0  0  0  0  0  0  0  0  0
   56.5860   27.0050    2.2170 O   0  0  0  0  0  0  0  0  0  0  0  0
   57.5240   24.6510    1.5940 O   0  0  0  0  0  0  0  0  0  0  0  0
   57.6450   24.7580    2.5720 H   0  0  0  0  0  0  0  0  0  0  0  0
   57.1200   26.6240   -0.3050 O   0  0  0  0  0  0  0  0  0  0  0  0
   57.6330   27.4220   -0.0220 H   0  0  0  0  0  0  0  0  0  0  0  0
  1  6  1  6  0  0  0
  1  2  1  0  0  0  0
  2  3  1  0  0  0  0
  2 15  1  1  0  0  0
  3 17  1  1  0  0  0
  4 19  1  6  0  0  0
  4  3  1  0  0  0  0
  5  1  1  0  0  0  0
  5  4  1  0  0  0  0
  7  6  1  0  0  0  0
  7 12  2  0  0  0  0
  8  7  1  0  0  0  0
  9 10  1  0  0  0  0
  9  8  1  0  0  0  0
 10 11  2  0  0  0  0
 11  6  1  0  0  0  0
 13  9  2  0  0  0  0
 14  8  1  0  0  0  0
 15 16  1  0  0  0  0
 17 18  1  0  0  0  0
 19 20  1  0  0  0  0
 20 21  1  0  0  0  0
 21 22  2  6  0  0  0
 21 25  1  0  0  0  0
 23 21  1  0  0  0  0
 23 24  1  0  0  0  0
 25 26  1  0  0  0  0
 26 28  1  0  0  0  0
 26 27  2  0  0  0  0
 28 29  1  0  0  0  0
 30 31  1  0  0  0  0
 30 26  1  0  0  0  0
M  END
>  <MODEL>
16

>  <REMARK>
 VINA RESULT:    -6.514      1.739      2.581
 INTER + INTRA:         -11.073
 INTER:                  -9.122
 INTRA:                  -1.952
 UNBOUND:                -1.322
  Name = UDP
  11 active torsions:
  status: ('A' for Active; 'I' for Inactive)
    1  A    between atoms: N_1  and  C_9
    2  A    between atoms: C_10  and  O_11
    3  A    between atoms: C_12  and  O_15
    4  A    between atoms: C_13  and  C_16
    5  A    between atoms: C_16  and  O_17
    6  A    between atoms: O_17  and  P_18
    7  A    between atoms: P_18  and  O_20
    8  A    between atoms: P_18  and  O_21
    9  A    between atoms: O_21  and  P_22
   10  A    between atoms: P_22  and  O_24
   11  A    between atoms: P_22  and  O_25
                            x       y       z     vdW  Elec       q    Type
                         _______ _______ _______ _____ _____    ______ ____

>  <TORSDO>
F 11

$$$$
