UDP
 OpenBabel09132600393D

 31 32  0  0  1  0  0  0  0  0999 V2000
   60.3580   20.0170   -4.5700 C   0  0  1  0  0  3  0  0  0  0  0  0
   61.5820   19.0920   -4.4440 C   0  0  1  0  0  3  0  0  0  0  0  0
   61.7350   18.5060   -5.8360 C   0  0  1  0  0  3  0  0  0  0  0  0
   60.9230   19.4680   -6.6950 C   0  0  2  0  0  3  0  0  0  0  0  0
   59.8790   19.9800   -5.8990 O   0  0  0  0  0  0  0  0  0  0  0  0
   59.2910   19.6170   -3.6280 N   0  0  0  0  0  0  0  0  0  0  0  0
   58.4730   20.5430   -3.0230 C   0  0  0  0  0  0  0  0  0  0  0  0
   57.4870   20.1380   -2.1750 N   0  0  0  0  0  0  0  0  0  0  0  0
   57.2780   18.8210   -1.9180 C   0  0  0  0  0  0  0  0  0  0  0  0
   58.0770   17.8620   -2.5300 C   0  0  0  0  0  3  0  0  0  0  0  0
   59.0840   18.2850   -3.3940 C   0  0  0  0  0  3  0  0  0  0  0  0
   58.6200   21.7750   -3.2480 O   0  0  0  0  0  0  0  0  0  0  0  0
   56.3600   18.4670   -1.1310 O   0  0  0  0  0  0  0  0  0  0  0  0
   56.8760   20.8530   -1.7170 H   0  0  0  0  0  0  0  0  0  0  0  0
   62.7250   19.8050   -4.0290 O   0  0  0  0  0  0  0  0  0  0  0  0
   62.4260   20.5680   -3.4670 H   0  0  0  0  0  0  0  0  0  0  0  0
   63.0720   18.4590   -6.2640 O   0  0  0  0  0  0  0  0  0  0  0  0
   63.1360   17.6930   -6.8930 H   0  0  0  0  0  0  0  0  0  0  0  0
   60.3460   18.7810   -7.9350 C   0  0  0  0  0  2  0  0  0  0  0  0
   59.8510   17.5150   -7.5710 O   0  0  0  0  0  0  0  0  0  0  0  0
   58.1640   17.5130   -7.8120 P   0  0  1  0  0  0  0  0  0  0  0  0
   57.8180   18.6470   -8.7510 O   0  0  0  0  0  0  0  0  0  0  0  0
   57.6990   16.0430   -8.5180 O   0  0  0  0  0  0  0  0  0  0  0  0
   56.8150   15.8400   -8.1210 H   0  0  0  0  0  0  0  0  0  0  0  0
   57.3870   17.7570   -6.3160 O   0  0  0  0  0  0  0  0  0  0  0  0
   55.7090   17.7420   -6.5940 P   0  0  0  0  0  0  0  0  0  0  0  0
   55.3240   16.3920   -7.1530 O   0  0  0  0  0  0  0  0  0  0  0  0
   54.8520   18.0040   -5.1560 O   0  0  0  0  0  0  0  0  0  0  0  0
   55.2830   17.4070   -4.4920 H   0  0  0  0  0  0  0  0  0  0  0  0
   55.3000   18.9350   -7.7240 O   0  0  0  0  0  0  0  0  0  0  0  0
   55.7770   19.7470   -7.4170 H   0  0  0  0  0  0  0  0  0  0  0  0
  1  2  1  0  0  0  0
  1  6  1  1  0  0  0
  2 15  1  6  0  0  0
  3 17  1  6  0  0  0
  3  2  1  0  0  0  0
  4 19  1  6  0  0  0
  4  5  1  0  0  0  0
  4  3  1  0  0  0  0
  5  1  1  0  0  0  0
  6 11  1  0  0  0  0
  6  7  1  0  0  0  0
  7  8  1  0  0  0  0
  8  9  1  0  0  0  0
  8 14  1  0  0  0  0
  9 13  2  0  0  0  0
 10  9  1  0  0  0  0
 11 10  2  0  0  0  0
 12  7  2  0  0  0  0
 15 16  1  0  0  0  0
 18 17  1  0  0  0  0
 19 20  1  0  0  0  0
 21 22  2  6  0  0  0
 21 20  1  0  0  0  0
 21 25  1  0  0  0  0
 23 24  1  0  0  0  0
 23 21  1  0  0  0  0
 26 25  1  0  0  0  0
 26 28  1  0  0  0  0
 27 26  2  0  0  0  0
 28 29  1  0  0  0  0
 30 31  1  0  0  0  0
 30 26  1  0  0  0  0
M  END
>  <MODEL>
5

>  <REMARK>
 VINA RESULT:    -6.978      4.189      7.657
 INTER + INTRA:         -11.768
 INTER:                 -10.265
 INTRA:                  -1.503
 UNBOUND:                -1.322
  Name = UDP
  11 active torsions:
  status: ('A' for Active; 'I' for Inactive)
    1  A    between atoms: N_1  and  C_9
    2  A    between atoms: C_10  and  O_11
    3  A    between atoms: C_12  and  O_15
    4  A    between atoms: C_13  and  C_16
    5  A    between atoms: C_16  and  O_17
    6  A    between atoms: O_17  and  P_18
    7  A    between atoms: P_18  and  O_20
    8  A    between atoms: P_18  and  O_21
    9  A    between atoms: O_21  and  P_22
   10  A    between atoms: P_22  and  O_24
   11  A    between atoms: P_22  and  O_25
                            x       y       z     vdW  Elec       q    Type
                         _______ _______ _______ _____ _____    ______ ____

>  <TORSDO>
F 11

$$$$
