UDP
 OpenBabel09132600393D

 31 32  0  0  1  0  0  0  0  0999 V2000
   58.1570   18.5770   -7.7000 C   0  0  1  0  0  3  0  0  0  0  0  0
   57.8130   17.1260   -7.3200 C   0  0  1  0  0  3  0  0  0  0  0  0
   56.3840   17.2140   -6.8170 C   0  0  1  0  0  3  0  0  0  0  0  0
   55.9140   18.5500   -7.3800 C   0  0  2  0  0  3  0  0  0  0  0  0
   57.0330   19.4000   -7.4620 O   0  0  0  0  0  0  0  0  0  0  0  0
   59.3230   19.0650   -6.9350 N   0  0  0  0  0  0  0  0  0  0  0  0
   60.5550   19.2400   -7.5220 C   0  0  0  0  0  0  0  0  0  0  0  0
   61.6040   19.7100   -6.7920 N   0  0  0  0  0  0  0  0  0  0  0  0
   61.4590   20.0300   -5.4790 C   0  0  0  0  0  0  0  0  0  0  0  0
   60.2210   19.8810   -4.8640 C   0  0  0  0  0  3  0  0  0  0  0  0
   59.1550   19.3980   -5.6180 C   0  0  0  0  0  3  0  0  0  0  0  0
   60.7290   18.9730   -8.7430 O   0  0  0  0  0  0  0  0  0  0  0  0
   62.4420   20.4640   -4.8210 O   0  0  0  0  0  0  0  0  0  0  0  0
   62.5370   19.8330   -7.2490 H   0  0  0  0  0  0  0  0  0  0  0  0
   57.9470   16.2590   -8.4240 O   0  0  0  0  0  0  0  0  0  0  0  0
   58.3590   16.7700   -9.1690 H   0  0  0  0  0  0  0  0  0  0  0  0
   55.5770   16.1630   -7.2810 O   0  0  0  0  0  0  0  0  0  0  0  0
   54.9820   16.5530   -7.9740 H   0  0  0  0  0  0  0  0  0  0  0  0
   54.8330   19.1910   -6.5060 C   0  0  0  0  0  2  0  0  0  0  0  0
   55.4340   20.1350   -5.6510 O   0  0  0  0  0  0  0  0  0  0  0  0
   54.2130   20.8360   -4.6900 P   0  0  1  0  0  0  0  0  0  0  0  0
   54.4800   22.3220   -4.5940 O   0  0  0  0  0  0  0  0  0  0  0  0
   52.7070   20.5870   -5.4270 O   0  0  0  0  0  0  0  0  0  0  0  0
   52.8600   20.7730   -6.3880 H   0  0  0  0  0  0  0  0  0  0  0  0
   54.2660   20.1460   -3.1340 O   0  0  0  0  0  0  0  0  0  0  0  0
   55.8980   19.8560   -2.7500 P   0  0  0  0  0  0  0  0  0  0  0  0
   56.0290   19.7470   -1.2480 O   0  0  0  0  0  0  0  0  0  0  0  0
   56.4400   18.4140   -3.4540 O   0  0  0  0  0  0  0  0  0  0  0  0
   55.9670   17.6970   -2.9590 H   0  0  0  0  0  0  0  0  0  0  0  0
   56.8560   21.1450   -3.2870 O   0  0  0  0  0  0  0  0  0  0  0  0
   56.2770   21.6450   -3.9150 H   0  0  0  0  0  0  0  0  0  0  0  0
  1  5  1  0  0  0  0
  1  2  1  0  0  0  0
  1  6  1  1  0  0  0
  2 15  1  6  0  0  0
  2  3  1  0  0  0  0
  3 17  1  6  0  0  0
  4  3  1  0  0  0  0
  4 19  1  1  0  0  0
  5  4  1  0  0  0  0
  6 11  1  0  0  0  0
  7  6  1  0  0  0  0
  7  8  1  0  0  0  0
  8  9  1  0  0  0  0
  9 10  1  0  0  0  0
  9 13  2  0  0  0  0
 11 10  2  0  0  0  0
 12  7  2  0  0  0  0
 14  8  1  0  0  0  0
 16 15  1  0  0  0  0
 18 17  1  0  0  0  0
 19 20  1  0  0  0  0
 20 21  1  0  0  0  0
 21 22  2  1  0  0  0
 21 25  1  0  0  0  0
 23 21  1  0  0  0  0
 24 23  1  0  0  0  0
 25 26  1  0  0  0  0
 26 27  2  0  0  0  0
 28 29  1  0  0  0  0
 28 26  1  0  0  0  0
 30 26  1  0  0  0  0
 31 30  1  0  0  0  0
M  END
>  <MODEL>
6

>  <REMARK>
 VINA RESULT:    -6.916      3.990      5.571
 INTER + INTRA:         -11.675
 INTER:                  -9.875
 INTRA:                  -1.800
 UNBOUND:                -1.322
  Name = UDP
  11 active torsions:
  status: ('A' for Active; 'I' for Inactive)
    1  A    between atoms: N_1  and  C_9
    2  A    between atoms: C_10  and  O_11
    3  A    between atoms: C_12  and  O_15
    4  A    between atoms: C_13  and  C_16
    5  A    between atoms: C_16  and  O_17
    6  A    between atoms: O_17  and  P_18
    7  A    between atoms: P_18  and  O_20
    8  A    between atoms: P_18  and  O_21
    9  A    between atoms: O_21  and  P_22
   10  A    between atoms: P_22  and  O_24
   11  A    between atoms: P_22  and  O_25
                            x       y       z     vdW  Elec       q    Type
                         _______ _______ _______ _____ _____    ______ ____

>  <TORSDO>
F 11

$$$$
