UDP
 OpenBabel09132600393D

 31 32  0  0  1  0  0  0  0  0999 V2000
   57.7130   17.8380   -7.6340 C   0  0  1  0  0  3  0  0  0  0  0  0
   56.9940   16.6420   -6.9850 C   0  0  1  0  0  3  0  0  0  0  0  0
   55.8620   17.2830   -6.2030 C   0  0  1  0  0  3  0  0  0  0  0  0
   55.7600   18.6650   -6.8370 C   0  0  2  0  0  3  0  0  0  0  0  0
   57.0460   19.0320   -7.2800 O   0  0  0  0  0  0  0  0  0  0  0  0
   59.1290   17.8970   -7.2170 N   0  0  0  0  0  0  0  0  0  0  0  0
   60.1160   18.3550   -8.0600 C   0  0  0  0  0  0  0  0  0  0  0  0
   61.4090   18.4150   -7.6360 N   0  0  0  0  0  0  0  0  0  0  0  0
   61.7530   18.0410   -6.3750 C   0  0  0  0  0  0  0  0  0  0  0  0
   60.7740   17.5930   -5.4960 C   0  0  0  0  0  3  0  0  0  0  0  0
   59.4550   17.5330   -5.9390 C   0  0  0  0  0  3  0  0  0  0  0  0
   59.8380   18.7290   -9.2320 O   0  0  0  0  0  0  0  0  0  0  0  0
   62.9550   18.1040   -6.0030 O   0  0  0  0  0  0  0  0  0  0  0  0
   62.1500   18.7590   -8.2890 H   0  0  0  0  0  0  0  0  0  0  0  0
   56.5330   15.7300   -7.9560 O   0  0  0  0  0  0  0  0  0  0  0  0
   57.0430   15.8870   -8.7940 H   0  0  0  0  0  0  0  0  0  0  0  0
   54.6500   16.5840   -6.3270 O   0  0  0  0  0  0  0  0  0  0  0  0
   53.9840   17.0840   -5.7860 H   0  0  0  0  0  0  0  0  0  0  0  0
   55.2290   19.7090   -5.8510 C   0  0  0  0  0  2  0  0  0  0  0  0
   54.2760   20.5150   -6.5050 O   0  0  0  0  0  0  0  0  0  0  0  0
   52.7520   20.2080   -5.8080 P   0  0  1  0  0  0  0  0  0  0  0  0
   52.7700   18.8140   -5.2200 O   0  0  0  0  0  0  0  0  0  0  0  0
   52.4640   21.3310   -4.5710 O   0  0  0  0  0  0  0  0  0  0  0  0
   53.0790   21.0670   -3.8410 H   0  0  0  0  0  0  0  0  0  0  0  0
   51.5580   20.2980   -7.0200 O   0  0  0  0  0  0  0  0  0  0  0  0
   52.0370   19.2810   -8.2970 P   0  0  0  0  0  0  0  0  0  0  0  0
   50.8670   19.1040   -9.2380 O   0  0  0  0  0  0  0  0  0  0  0  0
   53.3340   19.9510   -9.1550 O   0  0  0  0  0  0  0  0  0  0  0  0
   54.1250   19.4270   -8.8690 H   0  0  0  0  0  0  0  0  0  0  0  0
   52.4810   17.7630   -7.6910 O   0  0  0  0  0  0  0  0  0  0  0  0
   52.8970   17.2970   -8.4580 H   0  0  0  0  0  0  0  0  0  0  0  0
  1  5  1  0  0  0  0
  1  6  1  1  0  0  0
  1  2  1  0  0  0  0
  2 15  1  6  0  0  0
  2  3  1  0  0  0  0
  3 17  1  6  0  0  0
  4  3  1  0  0  0  0
  4 19  1  1  0  0  0
  5  4  1  0  0  0  0
  6 11  1  0  0  0  0
  7  8  1  0  0  0  0
  7  6  1  0  0  0  0
  8  9  1  0  0  0  0
  9 13  2  0  0  0  0
  9 10  1  0  0  0  0
 11 10  2  0  0  0  0
 12  7  2  0  0  0  0
 14  8  1  0  0  0  0
 16 15  1  0  0  0  0
 17 18  1  0  0  0  0
 20 19  1  0  0  0  0
 20 21  1  0  0  0  0
 21 22  2  1  0  0  0
 21 23  1  0  0  0  0
 23 24  1  0  0  0  0
 25 21  1  0  0  0  0
 26 30  1  0  0  0  0
 26 25  1  0  0  0  0
 27 26  2  0  0  0  0
 28 29  1  0  0  0  0
 28 26  1  0  0  0  0
 31 30  1  0  0  0  0
M  END
>  <MODEL>
7

>  <REMARK>
 VINA RESULT:    -6.910      5.593      7.156
 INTER + INTRA:         -11.665
 INTER:                  -9.892
 INTRA:                  -1.774
 UNBOUND:                -1.322
  Name = UDP
  11 active torsions:
  status: ('A' for Active; 'I' for Inactive)
    1  A    between atoms: N_1  and  C_9
    2  A    between atoms: C_10  and  O_11
    3  A    between atoms: C_12  and  O_15
    4  A    between atoms: C_13  and  C_16
    5  A    between atoms: C_16  and  O_17
    6  A    between atoms: O_17  and  P_18
    7  A    between atoms: P_18  and  O_20
    8  A    between atoms: P_18  and  O_21
    9  A    between atoms: O_21  and  P_22
   10  A    between atoms: P_22  and  O_24
   11  A    between atoms: P_22  and  O_25
                            x       y       z     vdW  Elec       q    Type
                         _______ _______ _______ _____ _____    ______ ____

>  <TORSDO>
F 11

$$$$
