UDP
 OpenBabel09132600393D

 31 32  0  0  1  0  0  0  0  0999 V2000
   56.2930   17.3870   -6.9290 C   0  0  1  0  0  3  0  0  0  0  0  0
   55.8750   18.8630   -7.0530 C   0  0  1  0  0  3  0  0  0  0  0  0
   57.0810   19.5260   -7.6930 C   0  0  1  0  0  3  0  0  0  0  0  0
   57.8400   18.3430   -8.2810 C   0  0  2  0  0  3  0  0  0  0  0  0
   57.5900   17.2230   -7.4650 O   0  0  0  0  0  0  0  0  0  0  0  0
   56.2580   16.9410   -5.5210 N   0  0  0  0  0  0  0  0  0  0  0  0
   55.0740   16.6850   -4.8690 C   0  0  0  0  0  0  0  0  0  0  0  0
   55.0790   16.2560   -3.5760 N   0  0  0  0  0  0  0  0  0  0  0  0
   56.2440   16.0590   -2.9060 C   0  0  0  0  0  0  0  0  0  0  0  0
   57.4570   16.2930   -3.5450 C   0  0  0  0  0  3  0  0  0  0  0  0
   57.4420   16.7320   -4.8660 C   0  0  0  0  0  3  0  0  0  0  0  0
   53.9690   16.8370   -5.4600 O   0  0  0  0  0  0  0  0  0  0  0  0
   56.2280   15.6630   -1.7110 O   0  0  0  0  0  0  0  0  0  0  0  0
   54.1710   16.0710   -3.0910 H   0  0  0  0  0  0  0  0  0  0  0  0
   54.7050   19.0030   -7.8270 O   0  0  0  0  0  0  0  0  0  0  0  0
   54.8780   19.6850   -8.5280 H   0  0  0  0  0  0  0  0  0  0  0  0
   56.7290   20.4450   -8.6960 O   0  0  0  0  0  0  0  0  0  0  0  0
   55.8180   20.7700   -8.4690 H   0  0  0  0  0  0  0  0  0  0  0  0
   59.3450   18.6100   -8.3580 C   0  0  0  0  0  2  0  0  0  0  0  0
   60.0370   17.4740   -7.8930 O   0  0  0  0  0  0  0  0  0  0  0  0
   60.9310   17.9230   -6.5140 P   0  0  1  0  0  0  0  0  0  0  0  0
   61.2020   16.6780   -5.6980 O   0  0  0  0  0  0  0  0  0  0  0  0
   62.4060   18.6040   -6.9980 O   0  0  0  0  0  0  0  0  0  0  0  0
   63.0030   18.4990   -6.2140 H   0  0  0  0  0  0  0  0  0  0  0  0
   60.0130   19.0200   -5.5890 O   0  0  0  0  0  0  0  0  0  0  0  0
   61.0840   19.8560   -4.5630 P   0  0  0  0  0  0  0  0  0  0  0  0
   61.6380   21.0460   -5.3110 O   0  0  0  0  0  0  0  0  0  0  0  0
   60.2880   20.4040   -3.1720 O   0  0  0  0  0  0  0  0  0  0  0  0
   60.1760   19.5960   -2.6090 H   0  0  0  0  0  0  0  0  0  0  0  0
   62.3680   18.8450   -4.1220 O   0  0  0  0  0  0  0  0  0  0  0  0
   62.8650   18.6860   -4.9630 H   0  0  0  0  0  0  0  0  0  0  0  0
  1  6  1  1  0  0  0
  2 15  1  6  0  0  0
  2  1  1  0  0  0  0
  3 17  1  6  0  0  0
  3  2  1  0  0  0  0
  4 19  1  1  0  0  0
  4  3  1  0  0  0  0
  4  5  1  0  0  0  0
  5  1  1  0  0  0  0
  6  7  1  0  0  0  0
  6 11  1  0  0  0  0
  7  8  1  0  0  0  0
  8 14  1  0  0  0  0
  8  9  1  0  0  0  0
  9 13  2  0  0  0  0
 10  9  1  0  0  0  0
 11 10  2  0  0  0  0
 12  7  2  0  0  0  0
 16 15  1  0  0  0  0
 17 18  1  0  0  0  0
 19 20  1  0  0  0  0
 20 21  1  0  0  0  0
 21 22  2  1  0  0  0
 21 25  1  0  0  0  0
 23 21  1  0  0  0  0
 23 24  1  0  0  0  0
 25 26  1  0  0  0  0
 26 30  1  0  0  0  0
 26 28  1  0  0  0  0
 27 26  2  0  0  0  0
 28 29  1  0  0  0  0
 31 30  1  0  0  0  0
M  END
>  <MODEL>
8

>  <REMARK>
 VINA RESULT:    -6.863      5.174      7.382
 INTER + INTRA:         -11.596
 INTER:                  -9.887
 INTRA:                  -1.709
 UNBOUND:                -1.322
  Name = UDP
  11 active torsions:
  status: ('A' for Active; 'I' for Inactive)
    1  A    between atoms: N_1  and  C_9
    2  A    between atoms: C_10  and  O_11
    3  A    between atoms: C_12  and  O_15
    4  A    between atoms: C_13  and  C_16
    5  A    between atoms: C_16  and  O_17
    6  A    between atoms: O_17  and  P_18
    7  A    between atoms: P_18  and  O_20
    8  A    between atoms: P_18  and  O_21
    9  A    between atoms: O_21  and  P_22
   10  A    between atoms: P_22  and  O_24
   11  A    between atoms: P_22  and  O_25
                            x       y       z     vdW  Elec       q    Type
                         _______ _______ _______ _____ _____    ______ ____

>  <TORSDO>
F 11

$$$$
