UDP
 OpenBabel09132600393D

 31 32  0  0  1  0  0  0  0  0999 V2000
   55.7520   24.7080   -0.4440 C   0  0  1  0  0  3  0  0  0  0  0  0
   56.3330   26.0810   -0.0650 C   0  0  1  0  0  3  0  0  0  0  0  0
   56.7460   25.9090    1.3860 C   0  0  1  0  0  3  0  0  0  0  0  0
   56.7990   24.3940    1.5410 C   0  0  2  0  0  3  0  0  0  0  0  0
   55.8460   23.8380    0.6660 O   0  0  0  0  0  0  0  0  0  0  0  0
   54.3460   24.8290   -0.8840 N   0  0  0  0  0  0  0  0  0  0  0  0
   53.9840   24.6860   -2.2030 C   0  0  0  0  0  0  0  0  0  0  0  0
   52.6760   24.7840   -2.5720 N   0  0  0  0  0  0  0  0  0  0  0  0
   51.7020   25.0100   -1.6520 C   0  0  0  0  0  0  0  0  0  0  0  0
   52.0370   25.1410   -0.3080 C   0  0  0  0  0  3  0  0  0  0  0  0
   53.3770   25.0400    0.0580 C   0  0  0  0  0  3  0  0  0  0  0  0
   54.8530   24.4570   -3.0880 O   0  0  0  0  0  0  0  0  0  0  0  0
   50.4980   25.0980   -2.0130 O   0  0  0  0  0  0  0  0  0  0  0  0
   52.4150   24.6790   -3.5790 H   0  0  0  0  0  0  0  0  0  0  0  0
   57.4150   26.4290   -0.8980 O   0  0  0  0  0  0  0  0  0  0  0  0
   58.0450   26.9880   -0.3700 H   0  0  0  0  0  0  0  0  0  0  0  0
   57.9950   26.4870    1.6700 O   0  0  0  0  0  0  0  0  0  0  0  0
   57.9180   26.8830    2.5770 H   0  0  0  0  0  0  0  0  0  0  0  0
   56.5100   23.9550    2.9780 C   0  0  0  0  0  2  0  0  0  0  0  0
   55.1480   24.1780    3.2610 O   0  0  0  0  0  0  0  0  0  0  0  0
   54.4420   22.6860    3.6860 P   0  0  1  0  0  0  0  0  0  0  0  0
   52.9430   22.8070    3.5200 O   0  0  0  0  0  0  0  0  0  0  0  0
   55.0210   21.4760    2.6500 O   0  0  0  0  0  0  0  0  0  0  0  0
   55.8750   21.8320    2.2960 H   0  0  0  0  0  0  0  0  0  0  0  0
   54.8080   22.3400    5.3120 O   0  0  0  0  0  0  0  0  0  0  0  0
   53.7940   21.0690    5.8130 P   0  0  0  0  0  0  0  0  0  0  0  0
   53.8550   19.9670    4.7800 O   0  0  0  0  0  0  0  0  0  0  0  0
   54.2930   20.4460    7.3080 O   0  0  0  0  0  0  0  0  0  0  0  0
   54.8690   19.6720    7.0800 H   0  0  0  0  0  0  0  0  0  0  0  0
   52.1960   21.6160    5.9300 O   0  0  0  0  0  0  0  0  0  0  0  0
   51.7320   21.2070    5.1570 H   0  0  0  0  0  0  0  0  0  0  0  0
  1  6  1  1  0  0  0
  1  2  1  0  0  0  0
  1  5  1  0  0  0  0
  2 15  1  6  0  0  0
  2  3  1  0  0  0  0
  3  4  1  0  0  0  0
  3 17  1  6  0  0  0
  4 19  1  1  0  0  0
  5  4  1  0  0  0  0
  6 11  1  0  0  0  0
  7  6  1  0  0  0  0
  8  7  1  0  0  0  0
  8  9  1  0  0  0  0
  9 10  1  0  0  0  0
 10 11  2  0  0  0  0
 12  7  2  0  0  0  0
 13  9  2  0  0  0  0
 14  8  1  0  0  0  0
 15 16  1  0  0  0  0
 17 18  1  0  0  0  0
 19 20  1  0  0  0  0
 20 21  1  0  0  0  0
 21 22  2  6  0  0  0
 21 25  1  0  0  0  0
 23 21  1  0  0  0  0
 24 23  1  0  0  0  0
 25 26  1  0  0  0  0
 26 30  1  0  0  0  0
 26 28  1  0  0  0  0
 27 26  2  0  0  0  0
 29 28  1  0  0  0  0
 31 30  1  0  0  0  0
M  END
>  <MODEL>
13

>  <REMARK>
 VINA RESULT:    -6.612      6.569      8.617
 INTER + INTRA:         -11.219
 INTER:                  -9.799
 INTRA:                  -1.420
 UNBOUND:                -1.322
  Name = UDP
  11 active torsions:
  status: ('A' for Active; 'I' for Inactive)
    1  A    between atoms: N_1  and  C_9
    2  A    between atoms: C_10  and  O_11
    3  A    between atoms: C_12  and  O_15
    4  A    between atoms: C_13  and  C_16
    5  A    between atoms: C_16  and  O_17
    6  A    between atoms: O_17  and  P_18
    7  A    between atoms: P_18  and  O_20
    8  A    between atoms: P_18  and  O_21
    9  A    between atoms: O_21  and  P_22
   10  A    between atoms: P_22  and  O_24
   11  A    between atoms: P_22  and  O_25
                            x       y       z     vdW  Elec       q    Type
                         _______ _______ _______ _____ _____    ______ ____

>  <TORSDO>
F 11

$$$$
