UDP
 OpenBabel09132600393D

 31 32  0  0  1  0  0  0  0  0999 V2000
   55.5800   24.8700   -1.0000 C   0  0  1  0  0  3  0  0  0  0  0  0
   56.6670   25.3520   -0.0240 C   0  0  1  0  0  3  0  0  0  0  0  0
   57.8150   24.3850   -0.2570 C   0  0  1  0  0  3  0  0  0  0  0  0
   57.4680   23.7770   -1.6100 C   0  0  2  0  0  3  0  0  0  0  0  0
   56.0650   23.7610   -1.7290 O   0  0  0  0  0  0  0  0  0  0  0  0
   54.3410   24.5080   -0.2790 N   0  0  0  0  0  0  0  0  0  0  0  0
   53.2290   25.3180   -0.2960 C   0  0  0  0  0  0  0  0  0  0  0  0
   52.0970   24.9450    0.3640 N   0  0  0  0  0  0  0  0  0  0  0  0
   52.0330   23.7670    1.0370 C   0  0  0  0  0  0  0  0  0  0  0  0
   53.1350   22.9200    1.0570 C   0  0  0  0  0  3  0  0  0  0  0  0
   54.2890   23.3110    0.3810 C   0  0  0  0  0  3  0  0  0  0  0  0
   53.2390   26.4120   -0.9250 O   0  0  0  0  0  0  0  0  0  0  0  0
   50.9760   23.4400    1.6410 O   0  0  0  0  0  0  0  0  0  0  0  0
   51.2610   25.5730    0.3470 H   0  0  0  0  0  0  0  0  0  0  0  0
   57.0280   26.6910   -0.2760 O   0  0  0  0  0  0  0  0  0  0  0  0
   57.7700   26.9320    0.3380 H   0  0  0  0  0  0  0  0  0  0  0  0
   59.0650   25.0240   -0.2990 O   0  0  0  0  0  0  0  0  0  0  0  0
   59.4500   24.9430    0.6130 H   0  0  0  0  0  0  0  0  0  0  0  0
   58.0220   22.3570   -1.7580 C   0  0  0  0  0  2  0  0  0  0  0  0
   58.5600   21.9440   -0.5240 O   0  0  0  0  0  0  0  0  0  0  0  0
   57.9620   20.3860   -0.1780 P   0  0  1  0  0  0  0  0  0  0  0  0
   58.2740   19.4860   -1.3530 O   0  0  0  0  0  0  0  0  0  0  0  0
   58.7340   19.7830    1.2060 O   0  0  0  0  0  0  0  0  0  0  0  0
   58.8740   20.5760    1.7840 H   0  0  0  0  0  0  0  0  0  0  0  0
   56.2750   20.4730    0.0390 O   0  0  0  0  0  0  0  0  0  0  0  0
   55.8070   19.1510    1.0030 P   0  0  0  0  0  0  0  0  0  0  0  0
   54.3130   18.9640    0.8720 O   0  0  0  0  0  0  0  0  0  0  0  0
   56.5830   17.7310    0.5050 O   0  0  0  0  0  0  0  0  0  0  0  0
   57.5430   17.9730    0.4490 H   0  0  0  0  0  0  0  0  0  0  0  0
   56.1750   19.4610    2.6260 O   0  0  0  0  0  0  0  0  0  0  0  0
   56.9320   18.8570    2.8330 H   0  0  0  0  0  0  0  0  0  0  0  0
  1  6  1  1  0  0  0
  1  2  1  0  0  0  0
  2 15  1  6  0  0  0
  3 17  1  6  0  0  0
  3  2  1  0  0  0  0
  4 19  1  1  0  0  0
  4  3  1  0  0  0  0
  5  4  1  0  0  0  0
  5  1  1  0  0  0  0
  6 11  1  0  0  0  0
  7  6  1  0  0  0  0
  7  8  1  0  0  0  0
  8  9  1  0  0  0  0
  9 10  1  0  0  0  0
  9 13  2  0  0  0  0
 11 10  2  0  0  0  0
 12  7  2  0  0  0  0
 14  8  1  0  0  0  0
 15 16  1  0  0  0  0
 17 18  1  0  0  0  0
 19 20  1  0  0  0  0
 20 21  1  0  0  0  0
 21 22  2  6  0  0  0
 21 25  1  0  0  0  0
 21 23  1  0  0  0  0
 23 24  1  0  0  0  0
 25 26  1  0  0  0  0
 26 30  1  0  0  0  0
 27 26  2  0  0  0  0
 28 26  1  0  0  0  0
 29 28  1  0  0  0  0
 30 31  1  0  0  0  0
M  END
>  <MODEL>
14

>  <REMARK>
 VINA RESULT:    -6.602      4.638      8.287
 INTER + INTRA:         -11.205
 INTER:                  -9.353
 INTRA:                  -1.851
 UNBOUND:                -1.322
  Name = UDP
  11 active torsions:
  status: ('A' for Active; 'I' for Inactive)
    1  A    between atoms: N_1  and  C_9
    2  A    between atoms: C_10  and  O_11
    3  A    between atoms: C_12  and  O_15
    4  A    between atoms: C_13  and  C_16
    5  A    between atoms: C_16  and  O_17
    6  A    between atoms: O_17  and  P_18
    7  A    between atoms: P_18  and  O_20
    8  A    between atoms: P_18  and  O_21
    9  A    between atoms: O_21  and  P_22
   10  A    between atoms: P_22  and  O_24
   11  A    between atoms: P_22  and  O_25
                            x       y       z     vdW  Elec       q    Type
                         _______ _______ _______ _____ _____    ______ ____

>  <TORSDO>
F 11

$$$$
