UDP
 OpenBabel09132600393D

 31 32  0  0  1  0  0  0  0  0999 V2000
   56.6620   23.8200    0.7970 C   0  0  1  0  0  3  0  0  0  0  0  0
   55.5860   24.4110    1.7250 C   0  0  1  0  0  3  0  0  0  0  0  0
   55.0170   23.1970    2.4360 C   0  0  1  0  0  3  0  0  0  0  0  0
   56.0950   22.1430    2.2120 C   0  0  2  0  0  3  0  0  0  0  0  0
   56.7170   22.4200    0.9800 O   0  0  0  0  0  0  0  0  0  0  0  0
   56.3810   24.1430   -0.6170 N   0  0  0  0  0  0  0  0  0  0  0  0
   56.8980   25.2660   -1.2220 C   0  0  0  0  0  0  0  0  0  0  0  0
   56.6350   25.5240   -2.5330 N   0  0  0  0  0  0  0  0  0  0  0  0
   55.8720   24.6790   -3.2750 C   0  0  0  0  0  0  0  0  0  0  0  0
   55.3510   23.5280   -2.6960 C   0  0  0  0  0  3  0  0  0  0  0  0
   55.6250   23.2730   -1.3540 C   0  0  0  0  0  3  0  0  0  0  0  0
   57.6260   26.0670   -0.5740 O   0  0  0  0  0  0  0  0  0  0  0  0
   55.6400   24.9360   -4.4870 O   0  0  0  0  0  0  0  0  0  0  0  0
   57.0300   26.3830   -2.9780 H   0  0  0  0  0  0  0  0  0  0  0  0
   56.1380   25.3530    2.6170 O   0  0  0  0  0  0  0  0  0  0  0  0
   55.3910   25.8600    3.0310 H   0  0  0  0  0  0  0  0  0  0  0  0
   54.8090   23.4170    3.8080 O   0  0  0  0  0  0  0  0  0  0  0  0
   53.8270   23.3790    3.9500 H   0  0  0  0  0  0  0  0  0  0  0  0
   55.5160   20.7260    2.2000 C   0  0  0  0  0  2  0  0  0  0  0  0
   54.3490   20.7000    2.9880 O   0  0  0  0  0  0  0  0  0  0  0  0
   54.7050   19.8830    4.4400 P   0  0  1  0  0  0  0  0  0  0  0  0
   53.4600   19.8780    5.2990 O   0  0  0  0  0  0  0  0  0  0  0  0
   55.1480   18.2840    4.0910 O   0  0  0  0  0  0  0  0  0  0  0  0
   54.5270   18.0000    3.3730 H   0  0  0  0  0  0  0  0  0  0  0  0
   55.9530   20.7100    5.2520 O   0  0  0  0  0  0  0  0  0  0  0  0
   55.3470   21.2120    6.7610 P   0  0  0  0  0  0  0  0  0  0  0  0
   56.4600   21.8900    7.5270 O   0  0  0  0  0  0  0  0  0  0  0  0
   54.0680   22.3050    6.5690 O   0  0  0  0  0  0  0  0  0  0  0  0
   54.3520   23.1170    7.0620 H   0  0  0  0  0  0  0  0  0  0  0  0
   54.8190   19.8690    7.6470 O   0  0  0  0  0  0  0  0  0  0  0  0
   55.5890   19.6250    8.2190 H   0  0  0  0  0  0  0  0  0  0  0  0
  1  6  1  6  0  0  0
  1  5  1  0  0  0  0
  1  2  1  0  0  0  0
  2  3  1  0  0  0  0
  2 15  1  1  0  0  0
  3 17  1  1  0  0  0
  4 19  1  6  0  0  0
  4  3  1  0  0  0  0
  5  4  1  0  0  0  0
  7  6  1  0  0  0  0
  7 12  2  0  0  0  0
  8  7  1  0  0  0  0
  9 10  1  0  0  0  0
  9  8  1  0  0  0  0
 10 11  2  0  0  0  0
 11  6  1  0  0  0  0
 13  9  2  0  0  0  0
 14  8  1  0  0  0  0
 15 16  1  0  0  0  0
 17 18  1  0  0  0  0
 19 20  1  0  0  0  0
 20 21  1  0  0  0  0
 21 25  1  0  0  0  0
 21 22  2  1  0  0  0
 23 21  1  0  0  0  0
 24 23  1  0  0  0  0
 25 26  1  0  0  0  0
 26 27  2  0  0  0  0
 26 30  1  0  0  0  0
 28 26  1  0  0  0  0
 28 29  1  0  0  0  0
 30 31  1  0  0  0  0
M  END
>  <MODEL>
19

>  <REMARK>
 VINA RESULT:    -6.444      5.922      7.898
 INTER + INTRA:         -10.969
 INTER:                  -9.278
 INTRA:                  -1.690
 UNBOUND:                -1.322
  Name = UDP
  11 active torsions:
  status: ('A' for Active; 'I' for Inactive)
    1  A    between atoms: N_1  and  C_9
    2  A    between atoms: C_10  and  O_11
    3  A    between atoms: C_12  and  O_15
    4  A    between atoms: C_13  and  C_16
    5  A    between atoms: C_16  and  O_17
    6  A    between atoms: O_17  and  P_18
    7  A    between atoms: P_18  and  O_20
    8  A    between atoms: P_18  and  O_21
    9  A    between atoms: O_21  and  P_22
   10  A    between atoms: P_22  and  O_24
   11  A    between atoms: P_22  and  O_25
                            x       y       z     vdW  Elec       q    Type
                         _______ _______ _______ _____ _____    ______ ____

>  <TORSDO>
F 11

$$$$
