UDP
 OpenBabel09132600393D

 31 32  0  0  1  0  0  0  0  0999 V2000
   57.6270   17.9020   -7.1830 C   0  0  1  0  0  3  0  0  0  0  0  0
   57.0360   16.5550   -6.7280 C   0  0  1  0  0  3  0  0  0  0  0  0
   56.0350   16.9440   -5.6560 C   0  0  1  0  0  3  0  0  0  0  0  0
   55.8150   18.4270   -5.9270 C   0  0  2  0  0  3  0  0  0  0  0  0
   57.0080   18.9490   -6.4630 O   0  0  0  0  0  0  0  0  0  0  0  0
   59.0900   17.9350   -6.9830 N   0  0  0  0  0  0  0  0  0  0  0  0
   59.9370   18.5000   -7.9090 C   0  0  0  0  0  0  0  0  0  0  0  0
   61.2800   18.5310   -7.6840 N   0  0  0  0  0  0  0  0  0  0  0  0
   61.8130   18.0220   -6.5430 C   0  0  0  0  0  0  0  0  0  0  0  0
   60.9800   17.4610   -5.5810 C   0  0  0  0  0  3  0  0  0  0  0  0
   59.6080   17.4330   -5.8210 C   0  0  0  0  0  3  0  0  0  0  0  0
   59.4820   19.0010   -8.9740 O   0  0  0  0  0  0  0  0  0  0  0  0
   63.0580   18.0610   -6.3540 O   0  0  0  0  0  0  0  0  0  0  0  0
   61.9120   18.9590   -8.3990 H   0  0  0  0  0  0  0  0  0  0  0  0
   56.4390   15.8670   -7.8040 O   0  0  0  0  0  0  0  0  0  0  0  0
   55.7610   15.2420   -7.4320 H   0  0  0  0  0  0  0  0  0  0  0  0
   54.8280   16.2320   -5.7540 O   0  0  0  0  0  0  0  0  0  0  0  0
   54.3170   16.6510   -6.4950 H   0  0  0  0  0  0  0  0  0  0  0  0
   55.4340   19.1910   -4.6560 C   0  0  0  0  0  2  0  0  0  0  0  0
   55.9010   18.4790   -3.5350 O   0  0  0  0  0  0  0  0  0  0  0  0
   57.1340   19.3950   -2.7980 P   0  0  1  0  0  0  0  0  0  0  0  0
   57.9690   18.4670   -1.9430 O   0  0  0  0  0  0  0  0  0  0  0  0
   58.1160   20.0820   -3.9970 O   0  0  0  0  0  0  0  0  0  0  0  0
   58.9270   20.3870   -3.5170 H   0  0  0  0  0  0  0  0  0  0  0  0
   56.4260   20.5920   -1.8140 O   0  0  0  0  0  0  0  0  0  0  0  0
   57.5970   21.7940   -1.5340 P   0  0  0  0  0  0  0  0  0  0  0  0
   57.7820   22.5920   -2.8040 O   0  0  0  0  0  0  0  0  0  0  0  0
   57.1110   22.8400   -0.2940 O   0  0  0  0  0  0  0  0  0  0  0  0
   56.1760   22.5760   -0.0920 H   0  0  0  0  0  0  0  0  0  0  0  0
   59.0750   21.0760   -1.1240 O   0  0  0  0  0  0  0  0  0  0  0  0
   58.9250   20.6840   -0.2270 H   0  0  0  0  0  0  0  0  0  0  0  0
  1  6  1  1  0  0  0
  1  2  1  0  0  0  0
  1  5  1  0  0  0  0
  2 15  1  6  0  0  0
  2  3  1  0  0  0  0
  3 17  1  6  0  0  0
  4  3  1  0  0  0  0
  4 19  1  1  0  0  0
  5  4  1  0  0  0  0
  6 11  1  0  0  0  0
  7  8  1  0  0  0  0
  7  6  1  0  0  0  0
  8  9  1  0  0  0  0
  9 13  2  0  0  0  0
  9 10  1  0  0  0  0
 11 10  2  0  0  0  0
 12  7  2  0  0  0  0
 14  8  1  0  0  0  0
 15 16  1  0  0  0  0
 18 17  1  0  0  0  0
 19 20  1  0  0  0  0
 20 21  1  0  0  0  0
 21 22  2  1  0  0  0
 21 25  1  0  0  0  0
 23 24  1  0  0  0  0
 23 21  1  0  0  0  0
 25 26  1  0  0  0  0
 26 30  1  0  0  0  0
 26 28  1  0  0  0  0
 27 26  2  0  0  0  0
 28 29  1  0  0  0  0
 30 31  1  0  0  0  0
M  END
>  <MODEL>
3

>  <REMARK>
 VINA RESULT:    -7.085      2.848      4.628
 INTER + INTRA:         -11.928
 INTER:                 -10.057
 INTRA:                  -1.872
 UNBOUND:                -1.322
  Name = UDP
  11 active torsions:
  status: ('A' for Active; 'I' for Inactive)
    1  A    between atoms: N_1  and  C_9
    2  A    between atoms: C_10  and  O_11
    3  A    between atoms: C_12  and  O_15
    4  A    between atoms: C_13  and  C_16
    5  A    between atoms: C_16  and  O_17
    6  A    between atoms: O_17  and  P_18
    7  A    between atoms: P_18  and  O_20
    8  A    between atoms: P_18  and  O_21
    9  A    between atoms: O_21  and  P_22
   10  A    between atoms: P_22  and  O_24
   11  A    between atoms: P_22  and  O_25
                            x       y       z     vdW  Elec       q    Type
                         _______ _______ _______ _____ _____    ______ ____

>  <TORSDO>
F 11

$$$$
