UDP
 OpenBabel09132600393D

 31 32  0  0  1  0  0  0  0  0999 V2000
   55.9290   24.3430    1.8690 C   0  0  1  0  0  3  0  0  0  0  0  0
   57.1540   24.7940    1.0540 C   0  0  1  0  0  3  0  0  0  0  0  0
   56.5520   25.3350   -0.2300 C   0  0  1  0  0  3  0  0  0  0  0  0
   55.0970   25.5710    0.1560 C   0  0  2  0  0  3  0  0  0  0  0  0
   54.7530   24.6200    1.1370 O   0  0  0  0  0  0  0  0  0  0  0  0
   56.0060   22.9020    2.1910 N   0  0  0  0  0  0  0  0  0  0  0  0
   55.5430   22.3990    3.3850 C   0  0  0  0  0  0  0  0  0  0  0  0
   55.6110   21.0630    3.6410 N   0  0  0  0  0  0  0  0  0  0  0  0
   56.1210   20.1980    2.7260 C   0  0  0  0  0  0  0  0  0  0  0  0
   56.5800   20.6760    1.5030 C   0  0  0  0  0  3  0  0  0  0  0  0
   56.5080   22.0430    1.2510 C   0  0  0  0  0  3  0  0  0  0  0  0
   55.0450   23.1650    4.2550 O   0  0  0  0  0  0  0  0  0  0  0  0
   56.1760   18.9660    2.9820 O   0  0  0  0  0  0  0  0  0  0  0  0
   55.2610   20.6950    4.5550 H   0  0  0  0  0  0  0  0  0  0  0  0
   57.9070   25.7620    1.7500 O   0  0  0  0  0  0  0  0  0  0  0  0
   58.5310   26.1890    1.1060 H   0  0  0  0  0  0  0  0  0  0  0  0
   57.1580   26.5300   -0.6550 O   0  0  0  0  0  0  0  0  0  0  0  0
   56.5800   27.2670   -0.3260 H   0  0  0  0  0  0  0  0  0  0  0  0
   54.1580   25.4450   -1.0460 C   0  0  0  0  0  2  0  0  0  0  0  0
   53.2290   26.5030   -1.0160 O   0  0  0  0  0  0  0  0  0  0  0  0
   51.7340   25.8830   -0.4830 P   0  0  1  0  0  0  0  0  0  0  0  0
   51.0480   25.2230   -1.6580 O   0  0  0  0  0  0  0  0  0  0  0  0
   52.0050   24.7260    0.7260 O   0  0  0  0  0  0  0  0  0  0  0  0
   52.9120   24.9280    1.0720 H   0  0  0  0  0  0  0  0  0  0  0  0
   50.7720   27.1670    0.0890 O   0  0  0  0  0  0  0  0  0  0  0  0
   49.2380   26.5360    0.4690 P   0  0  0  0  0  0  0  0  0  0  0  0
   48.8140   27.0770    1.8160 O   0  0  0  0  0  0  0  0  0  0  0  0
   48.0900   26.9900   -0.6900 O   0  0  0  0  0  0  0  0  0  0  0  0
   47.4810   27.6110   -0.2140 H   0  0  0  0  0  0  0  0  0  0  0  0
   49.3150   24.8470    0.5620 O   0  0  0  0  0  0  0  0  0  0  0  0
   48.6670   24.5280   -0.1150 H   0  0  0  0  0  0  0  0  0  0  0  0
  1  6  1  6  0  0  0
  2 15  1  1  0  0  0
  2  1  1  0  0  0  0
  3 17  1  1  0  0  0
  3  4  1  0  0  0  0
  3  2  1  0  0  0  0
  4 19  1  6  0  0  0
  4  5  1  0  0  0  0
  5  1  1  0  0  0  0
  6  7  1  0  0  0  0
  7  8  1  0  0  0  0
  7 12  2  0  0  0  0
  8 14  1  0  0  0  0
  9 13  2  0  0  0  0
  9  8  1  0  0  0  0
 10  9  1  0  0  0  0
 11 10  2  0  0  0  0
 11  6  1  0  0  0  0
 16 15  1  0  0  0  0
 17 18  1  0  0  0  0
 19 20  1  0  0  0  0
 20 21  1  0  0  0  0
 21 22  2  6  0  0  0
 21 25  1  0  0  0  0
 21 23  1  0  0  0  0
 23 24  1  0  0  0  0
 25 26  1  0  0  0  0
 26 30  1  0  0  0  0
 26 27  2  0  0  0  0
 28 29  1  0  0  0  0
 28 26  1  0  0  0  0
 31 30  1  0  0  0  0
M  END
>  <MODEL>
11

>  <REMARK>
 VINA RESULT:    -6.722      6.186      8.112
 INTER + INTRA:         -11.384
 INTER:                 -10.154
 INTRA:                  -1.231
 UNBOUND:                -1.322
  Name = UDP
  11 active torsions:
  status: ('A' for Active; 'I' for Inactive)
    1  A    between atoms: N_1  and  C_9
    2  A    between atoms: C_10  and  O_11
    3  A    between atoms: C_12  and  O_15
    4  A    between atoms: C_13  and  C_16
    5  A    between atoms: C_16  and  O_17
    6  A    between atoms: O_17  and  P_18
    7  A    between atoms: P_18  and  O_20
    8  A    between atoms: P_18  and  O_21
    9  A    between atoms: O_21  and  P_22
   10  A    between atoms: P_22  and  O_24
   11  A    between atoms: P_22  and  O_25
                            x       y       z     vdW  Elec       q    Type
                         _______ _______ _______ _____ _____    ______ ____

>  <TORSDO>
F 11

$$$$
