UDP
 OpenBabel09132600393D

 31 32  0  0  1  0  0  0  0  0999 V2000
   57.9730   21.9330   -0.2890 C   0  0  1  0  0  3  0  0  0  0  0  0
   57.2420   20.5860   -0.1480 C   0  0  1  0  0  3  0  0  0  0  0  0
   57.4610   19.9140   -1.4910 C   0  0  1  0  0  3  0  0  0  0  0  0
   58.6380   20.6930   -2.0660 C   0  0  2  0  0  3  0  0  0  0  0  0
   58.5670   22.0090   -1.5690 O   0  0  0  0  0  0  0  0  0  0  0  0
   57.0460   23.0650   -0.0840 N   0  0  0  0  0  0  0  0  0  0  0  0
   57.4980   24.3570    0.0520 C   0  0  0  0  0  0  0  0  0  0  0  0
   56.6140   25.3800    0.2200 N   0  0  0  0  0  0  0  0  0  0  0  0
   55.2740   25.1540    0.2430 C   0  0  0  0  0  0  0  0  0  0  0  0
   54.7880   23.8610    0.0900 C   0  0  0  0  0  3  0  0  0  0  0  0
   55.6990   22.8210   -0.0800 C   0  0  0  0  0  3  0  0  0  0  0  0
   58.7320   24.6140    0.0180 O   0  0  0  0  0  0  0  0  0  0  0  0
   54.4740   26.1140    0.4000 O   0  0  0  0  0  0  0  0  0  0  0  0
   56.9710   26.3570    0.3280 H   0  0  0  0  0  0  0  0  0  0  0  0
   57.7580   19.8310    0.9260 O   0  0  0  0  0  0  0  0  0  0  0  0
   57.3330   20.1540    1.7630 H   0  0  0  0  0  0  0  0  0  0  0  0
   57.7730   18.5490   -1.3740 O   0  0  0  0  0  0  0  0  0  0  0  0
   56.9200   18.0860   -1.1650 H   0  0  0  0  0  0  0  0  0  0  0  0
   58.6210   20.7100   -3.5960 C   0  0  0  0  0  2  0  0  0  0  0  0
   57.4510   20.0690   -4.0500 O   0  0  0  0  0  0  0  0  0  0  0  0
   57.9100   18.7810   -5.0660 P   0  0  1  0  0  0  0  0  0  0  0  0
   58.7650   19.3390   -6.1830 O   0  0  0  0  0  0  0  0  0  0  0  0
   58.8180   17.6590   -4.1760 O   0  0  0  0  0  0  0  0  0  0  0  0
   58.2560   17.4460   -3.3890 H   0  0  0  0  0  0  0  0  0  0  0  0
   56.5110   18.0660   -5.7240 O   0  0  0  0  0  0  0  0  0  0  0  0
   57.0040   16.9950   -6.9510 P   0  0  0  0  0  0  0  0  0  0  0  0
   58.0940   16.1030   -6.4030 O   0  0  0  0  0  0  0  0  0  0  0  0
   55.7130   16.0270   -7.4680 O   0  0  0  0  0  0  0  0  0  0  0  0
   55.1750   16.6160   -8.0560 H   0  0  0  0  0  0  0  0  0  0  0  0
   57.6220   17.8660   -8.2640 O   0  0  0  0  0  0  0  0  0  0  0  0
   58.2120   18.5490   -7.8590 H   0  0  0  0  0  0  0  0  0  0  0  0
  1  2  1  0  0  0  0
  1  6  1  6  0  0  0
  2 15  1  1  0  0  0
  3 17  1  1  0  0  0
  3  2  1  0  0  0  0
  4 19  1  6  0  0  0
  4  5  1  0  0  0  0
  4  3  1  0  0  0  0
  5  1  1  0  0  0  0
  6 11  1  0  0  0  0
  6  7  1  0  0  0  0
  7  8  1  0  0  0  0
  8  9  1  0  0  0  0
  8 14  1  0  0  0  0
  9 13  2  0  0  0  0
 10  9  1  0  0  0  0
 11 10  2  0  0  0  0
 12  7  2  0  0  0  0
 15 16  1  0  0  0  0
 17 18  1  0  0  0  0
 20 19  1  0  0  0  0
 21 22  2  6  0  0  0
 21 23  1  0  0  0  0
 21 20  1  0  0  0  0
 23 24  1  0  0  0  0
 25 21  1  0  0  0  0
 26 27  2  0  0  0  0
 26 25  1  0  0  0  0
 28 26  1  0  0  0  0
 29 28  1  0  0  0  0
 30 31  1  0  0  0  0
 30 26  1  0  0  0  0
M  END
>  <MODEL>
18

>  <REMARK>
 VINA RESULT:    -6.446      3.886      8.393
 INTER + INTRA:         -10.972
 INTER:                  -9.552
 INTRA:                  -1.420
 UNBOUND:                -1.322
  Name = UDP
  11 active torsions:
  status: ('A' for Active; 'I' for Inactive)
    1  A    between atoms: N_1  and  C_9
    2  A    between atoms: C_10  and  O_11
    3  A    between atoms: C_12  and  O_15
    4  A    between atoms: C_13  and  C_16
    5  A    between atoms: C_16  and  O_17
    6  A    between atoms: O_17  and  P_18
    7  A    between atoms: P_18  and  O_20
    8  A    between atoms: P_18  and  O_21
    9  A    between atoms: O_21  and  P_22
   10  A    between atoms: P_22  and  O_24
   11  A    between atoms: P_22  and  O_25
                            x       y       z     vdW  Elec       q    Type
                         _______ _______ _______ _____ _____    ______ ____

>  <TORSDO>
F 11

$$$$
