UDP
 OpenBabel09132600393D

 31 32  0  0  1  0  0  0  0  0999 V2000
   56.6910   24.7660    0.7530 C   0  0  1  0  0  3  0  0  0  0  0  0
   57.9640   24.4530   -0.0540 C   0  0  1  0  0  3  0  0  0  0  0  0
   57.5040   24.5310   -1.4980 C   0  0  1  0  0  3  0  0  0  0  0  0
   56.2000   25.3120   -1.3910 C   0  0  2  0  0  3  0  0  0  0  0  0
   55.6250   25.0200   -0.1390 O   0  0  0  0  0  0  0  0  0  0  0  0
   56.3480   23.6510    1.6590 N   0  0  0  0  0  0  0  0  0  0  0  0
   56.0190   23.8620    2.9780 C   0  0  0  0  0  0  0  0  0  0  0  0
   55.6890   22.8130    3.7810 N   0  0  0  0  0  0  0  0  0  0  0  0
   55.6630   21.5420    3.3020 C   0  0  0  0  0  0  0  0  0  0  0  0
   55.9730   21.3000    1.9680 C   0  0  0  0  0  3  0  0  0  0  0  0
   56.3110   22.3790    1.1550 C   0  0  0  0  0  3  0  0  0  0  0  0
   56.0120   25.0280    3.4600 O   0  0  0  0  0  0  0  0  0  0  0  0
   55.3550   20.5850    4.0610 O   0  0  0  0  0  0  0  0  0  0  0  0
   55.4460   22.9870    4.7840 H   0  0  0  0  0  0  0  0  0  0  0  0
   58.9950   25.3690    0.2370 O   0  0  0  0  0  0  0  0  0  0  0  0
   58.7150   26.2640   -0.0910 H   0  0  0  0  0  0  0  0  0  0  0  0
   58.4210   25.1980   -2.3270 O   0  0  0  0  0  0  0  0  0  0  0  0
   57.8940   25.5730   -3.0800 H   0  0  0  0  0  0  0  0  0  0  0  0
   55.2220   24.9500   -2.5130 C   0  0  0  0  0  2  0  0  0  0  0  0
   53.9970   25.6060   -2.2830 O   0  0  0  0  0  0  0  0  0  0  0  0
   52.7750   24.4250   -2.1660 P   0  0  1  0  0  0  0  0  0  0  0  0
   52.6100   23.7750   -3.5220 O   0  0  0  0  0  0  0  0  0  0  0  0
   53.2390   23.2480   -1.0370 O   0  0  0  0  0  0  0  0  0  0  0  0
   53.1880   22.3900   -1.5300 H   0  0  0  0  0  0  0  0  0  0  0  0
   51.3150   25.1780   -1.7140 O   0  0  0  0  0  0  0  0  0  0  0  0
   51.6150   26.0890   -0.3090 P   0  0  0  0  0  0  0  0  0  0  0  0
   51.8600   27.5260   -0.7090 O   0  0  0  0  0  0  0  0  0  0  0  0
   50.2910   26.0320    0.7460 O   0  0  0  0  0  0  0  0  0  0  0  0
   49.6250   26.6510    0.3510 H   0  0  0  0  0  0  0  0  0  0  0  0
   52.9940   25.5010    0.4780 O   0  0  0  0  0  0  0  0  0  0  0  0
   52.6440   24.9420    1.2160 H   0  0  0  0  0  0  0  0  0  0  0  0
  1  6  1  1  0  0  0
  2 15  1  6  0  0  0
  2  1  1  0  0  0  0
  3 17  1  6  0  0  0
  3  4  1  0  0  0  0
  3  2  1  0  0  0  0
  4 19  1  6  0  0  0
  4  5  1  0  0  0  0
  5  1  1  0  0  0  0
  6  7  1  0  0  0  0
  7 12  2  0  0  0  0
  7  8  1  0  0  0  0
  8 14  1  0  0  0  0
  9  8  1  0  0  0  0
  9 13  2  0  0  0  0
 10  9  1  0  0  0  0
 11  6  1  0  0  0  0
 11 10  2  0  0  0  0
 16 15  1  0  0  0  0
 18 17  1  0  0  0  0
 19 20  1  0  0  0  0
 20 21  1  0  0  0  0
 21 22  2  6  0  0  0
 21 25  1  0  0  0  0
 21 23  1  0  0  0  0
 24 23  1  0  0  0  0
 25 26  1  0  0  0  0
 26 30  1  0  0  0  0
 26 28  1  0  0  0  0
 27 26  2  0  0  0  0
 29 28  1  0  0  0  0
 30 31  1  0  0  0  0
M  END
>  <MODEL>
2

>  <REMARK>
 VINA RESULT:    -7.200      5.940      7.723
 INTER + INTRA:         -12.100
 INTER:                 -10.288
 INTRA:                  -1.812
 UNBOUND:                -1.322
  Name = UDP
  11 active torsions:
  status: ('A' for Active; 'I' for Inactive)
    1  A    between atoms: N_1  and  C_9
    2  A    between atoms: C_10  and  O_11
    3  A    between atoms: C_12  and  O_15
    4  A    between atoms: C_13  and  C_16
    5  A    between atoms: C_16  and  O_17
    6  A    between atoms: O_17  and  P_18
    7  A    between atoms: P_18  and  O_20
    8  A    between atoms: P_18  and  O_21
    9  A    between atoms: O_21  and  P_22
   10  A    between atoms: P_22  and  O_24
   11  A    between atoms: P_22  and  O_25
                            x       y       z     vdW  Elec       q    Type
                         _______ _______ _______ _____ _____    ______ ____

>  <TORSDO>
F 11

$$$$
