UDP
 OpenBabel09132600393D

 31 32  0  0  1  0  0  0  0  0999 V2000
   55.2340   18.9950    2.8050 C   0  0  1  0  0  3  0  0  0  0  0  0
   56.5700   18.2380    2.9130 C   0  0  1  0  0  3  0  0  0  0  0  0
   56.1580   16.7770    2.9070 C   0  0  1  0  0  3  0  0  0  0  0  0
   54.7440   16.8310    2.3420 C   0  0  2  0  0  3  0  0  0  0  0  0
   54.1750   18.0620    2.7220 O   0  0  0  0  0  0  0  0  0  0  0  0
   55.0380   19.8930    3.9620 N   0  0  0  0  0  0  0  0  0  0  0  0
   55.4160   21.2160    3.9260 C   0  0  0  0  0  0  0  0  0  0  0  0
   55.2020   22.0210    5.0030 N   0  0  0  0  0  0  0  0  0  0  0  0
   54.6030   21.5480    6.1270 C   0  0  0  0  0  0  0  0  0  0  0  0
   54.1930   20.2200    6.1840 C   0  0  0  0  0  3  0  0  0  0  0  0
   54.4170   19.4040    5.0790 C   0  0  0  0  0  3  0  0  0  0  0  0
   55.9600   21.7010    2.8960 O   0  0  0  0  0  0  0  0  0  0  0  0
   54.4140   22.3090    7.1120 O   0  0  0  0  0  0  0  0  0  0  0  0
   55.5000   23.0230    4.9650 H   0  0  0  0  0  0  0  0  0  0  0  0
   57.4320   18.5620    1.8450 O   0  0  0  0  0  0  0  0  0  0  0  0
   57.4490   17.7920    1.2180 H   0  0  0  0  0  0  0  0  0  0  0  0
   56.9890   15.9800    2.1030 O   0  0  0  0  0  0  0  0  0  0  0  0
   56.9610   15.0670    2.4930 H   0  0  0  0  0  0  0  0  0  0  0  0
   53.8790   15.6760    2.8520 C   0  0  0  0  0  2  0  0  0  0  0  0
   53.6890   14.7490    1.8090 O   0  0  0  0  0  0  0  0  0  0  0  0
   54.4780   13.3000    2.2340 P   0  0  1  0  0  0  0  0  0  0  0  0
   54.8640   13.3800    3.6950 O   0  0  0  0  0  0  0  0  0  0  0  0
   53.4180   11.9960    2.0080 O   0  0  0  0  0  0  0  0  0  0  0  0
   52.5190   12.4080    1.9490 H   0  0  0  0  0  0  0  0  0  0  0  0
   55.8820   13.1310    1.2840 O   0  0  0  0  0  0  0  0  0  0  0  0
   55.4810   13.5580   -0.3140 P   0  0  0  0  0  0  0  0  0  0  0  0
   56.4700   12.9020   -1.2500 O   0  0  0  0  0  0  0  0  0  0  0  0
   53.9200   13.0330   -0.7100 O   0  0  0  0  0  0  0  0  0  0  0  0
   53.7820   12.2150   -0.1670 H   0  0  0  0  0  0  0  0  0  0  0  0
   55.5820   15.2370   -0.5060 O   0  0  0  0  0  0  0  0  0  0  0  0
   54.6680   15.5680   -0.3170 H   0  0  0  0  0  0  0  0  0  0  0  0
  1  2  1  0  0  0  0
  1  6  1  1  0  0  0
  2 15  1  6  0  0  0
  3 17  1  6  0  0  0
  3  2  1  0  0  0  0
  4  5  1  0  0  0  0
  4 19  1  1  0  0  0
  4  3  1  0  0  0  0
  5  1  1  0  0  0  0
  6 11  1  0  0  0  0
  7  6  1  0  0  0  0
  7  8  1  0  0  0  0
  8  9  1  0  0  0  0
  9 10  1  0  0  0  0
  9 13  2  0  0  0  0
 11 10  2  0  0  0  0
 12  7  2  0  0  0  0
 14  8  1  0  0  0  0
 16 15  1  0  0  0  0
 17 18  1  0  0  0  0
 20 21  1  0  0  0  0
 20 19  1  0  0  0  0
 21 22  2  1  0  0  0
 23 21  1  0  0  0  0
 24 23  1  0  0  0  0
 25 21  1  0  0  0  0
 26 25  1  0  0  0  0
 27 26  2  0  0  0  0
 28 26  1  0  0  0  0
 28 29  1  0  0  0  0
 30 31  1  0  0  0  0
 30 26  1  0  0  0  0
M  END
>  <MODEL>
9

>  <REMARK>
 VINA RESULT:    -6.738      7.396     10.911
 INTER + INTRA:         -11.409
 INTER:                  -9.386
 INTRA:                  -2.023
 UNBOUND:                -1.322
  Name = UDP
  11 active torsions:
  status: ('A' for Active; 'I' for Inactive)
    1  A    between atoms: N_1  and  C_9
    2  A    between atoms: C_10  and  O_11
    3  A    between atoms: C_12  and  O_15
    4  A    between atoms: C_13  and  C_16
    5  A    between atoms: C_16  and  O_17
    6  A    between atoms: O_17  and  P_18
    7  A    between atoms: P_18  and  O_20
    8  A    between atoms: P_18  and  O_21
    9  A    between atoms: O_21  and  P_22
   10  A    between atoms: P_22  and  O_24
   11  A    between atoms: P_22  and  O_25
                            x       y       z     vdW  Elec       q    Type
                         _______ _______ _______ _____ _____    ______ ____

>  <TORSDO>
F 11

$$$$
