UDP
 OpenBabel09132600393D

 31 32  0  0  1  0  0  0  0  0999 V2000
   58.3630   18.5800   -7.1350 C   0  0  1  0  0  3  0  0  0  0  0  0
   58.4240   17.0920   -7.5210 C   0  0  1  0  0  3  0  0  0  0  0  0
   57.1330   16.5220   -6.9610 C   0  0  1  0  0  3  0  0  0  0  0  0
   56.2840   17.7680   -6.7440 C   0  0  2  0  0  3  0  0  0  0  0  0
   57.1540   18.8360   -6.4490 O   0  0  0  0  0  0  0  0  0  0  0  0
   59.5190   18.9590   -6.2960 N   0  0  0  0  0  0  0  0  0  0  0  0
   60.7590   19.2080   -6.8380 C   0  0  0  0  0  0  0  0  0  0  0  0
   61.7990   19.5740   -6.0380 N   0  0  0  0  0  0  0  0  0  0  0  0
   61.6370   19.7150   -4.6960 C   0  0  0  0  0  0  0  0  0  0  0  0
   60.3910   19.4870   -4.1230 C   0  0  0  0  0  3  0  0  0  0  0  0
   59.3340   19.1120   -4.9480 C   0  0  0  0  0  3  0  0  0  0  0  0
   60.9490   19.1080   -8.0810 O   0  0  0  0  0  0  0  0  0  0  0  0
   62.6110   20.0540   -3.9730 O   0  0  0  0  0  0  0  0  0  0  0  0
   62.7370   19.7550   -6.4620 H   0  0  0  0  0  0  0  0  0  0  0  0
   58.5290   16.9270   -8.9170 O   0  0  0  0  0  0  0  0  0  0  0  0
   59.3860   17.3330   -9.2130 H   0  0  0  0  0  0  0  0  0  0  0  0
   56.5010   15.6330   -7.8470 O   0  0  0  0  0  0  0  0  0  0  0  0
   56.5500   16.0530   -8.7450 H   0  0  0  0  0  0  0  0  0  0  0  0
   55.2780   17.5840   -5.6060 C   0  0  0  0  0  2  0  0  0  0  0  0
   55.1240   16.2080   -5.3460 O   0  0  0  0  0  0  0  0  0  0  0  0
   54.1970   16.0340   -3.9270 P   0  0  1  0  0  0  0  0  0  0  0  0
   52.7440   16.2670   -4.2790 O   0  0  0  0  0  0  0  0  0  0  0  0
   54.3790   14.4590   -3.3270 O   0  0  0  0  0  0  0  0  0  0  0  0
   54.3230   13.8760   -4.1260 H   0  0  0  0  0  0  0  0  0  0  0  0
   54.7000   17.1960   -2.7880 O   0  0  0  0  0  0  0  0  0  0  0  0
   56.0300   16.5530   -1.9440 P   0  0  0  0  0  0  0  0  0  0  0  0
   55.5240   15.5350   -0.9480 O   0  0  0  0  0  0  0  0  0  0  0  0
   57.1110   15.7930   -3.0030 O   0  0  0  0  0  0  0  0  0  0  0  0
   57.9690   15.7550   -2.5070 H   0  0  0  0  0  0  0  0  0  0  0  0
   56.8310   17.7850   -1.1030 O   0  0  0  0  0  0  0  0  0  0  0  0
   56.4730   18.6260   -1.4860 H   0  0  0  0  0  0  0  0  0  0  0  0
  1  5  1  0  0  0  0
  1  6  1  1  0  0  0
  2 15  1  6  0  0  0
  2  1  1  0  0  0  0
  2  3  1  0  0  0  0
  3 17  1  6  0  0  0
  3  4  1  0  0  0  0
  4  5  1  0  0  0  0
  4 19  1  1  0  0  0
  6 11  1  0  0  0  0
  7  6  1  0  0  0  0
  7  8  1  0  0  0  0
  8  9  1  0  0  0  0
  9 10  1  0  0  0  0
  9 13  2  0  0  0  0
 11 10  2  0  0  0  0
 12  7  2  0  0  0  0
 14  8  1  0  0  0  0
 16 15  1  0  0  0  0
 18 17  1  0  0  0  0
 19 20  1  0  0  0  0
 20 21  1  0  0  0  0
 21 22  2  6  0  0  0
 21 23  1  0  0  0  0
 21 25  1  0  0  0  0
 24 23  1  0  0  0  0
 25 26  1  0  0  0  0
 26 30  1  0  0  0  0
 26 27  2  0  0  0  0
 28 29  1  0  0  0  0
 28 26  1  0  0  0  0
 31 30  1  0  0  0  0
M  END
>  <MODEL>
12

>  <REMARK>
 VINA RESULT:    -6.705      5.153      7.041
 INTER + INTRA:         -11.359
 INTER:                  -9.667
 INTRA:                  -1.692
 UNBOUND:                -1.322
  Name = UDP
  11 active torsions:
  status: ('A' for Active; 'I' for Inactive)
    1  A    between atoms: N_1  and  C_9
    2  A    between atoms: C_10  and  O_11
    3  A    between atoms: C_12  and  O_15
    4  A    between atoms: C_13  and  C_16
    5  A    between atoms: C_16  and  O_17
    6  A    between atoms: O_17  and  P_18
    7  A    between atoms: P_18  and  O_20
    8  A    between atoms: P_18  and  O_21
    9  A    between atoms: O_21  and  P_22
   10  A    between atoms: P_22  and  O_24
   11  A    between atoms: P_22  and  O_25
                            x       y       z     vdW  Elec       q    Type
                         _______ _______ _______ _____ _____    ______ ____

>  <TORSDO>
F 11

$$$$
