BEM
  CCTOOLS-0919241033

 23 23  0  0  1  0  0  0  0  0999 V2000
    1.3530    1.1650   -0.6920 C   0  0  0  0  0
    1.9650   -0.1100   -0.1060 C   0  0  0  0  0
    2.0800    0.0230    1.3120 O   0  0  0  0  0
    1.0580   -1.3000   -0.4370 C   0  0  0  0  0
    1.5830   -2.4840    0.1690 O   0  0  0  0  0
   -0.3460   -1.0250    0.1090 C   0  0  0  0  0
   -1.2190   -2.0960   -0.2570 O   0  0  0  0  0
   -0.8680    0.2860   -0.4860 C   0  0  0  0  0
    0.0360    1.3450   -0.1670 O   0  0  0  0  0
   -2.2260    0.5940    0.0920 C   0  0  0  0  0
   -3.2650   -0.2160   -0.1670 O   0  0  0  0  0
   -2.3800    1.5700    0.7870 O   0  0  0  0  0
    2.1640    2.2880   -0.3390 O   0  0  0  0  0
    1.3040    1.0790   -1.7770 H   0  0  0  0  0
    2.9520   -0.2730   -0.5380 H   0  0  0  0  0
    2.6380    0.7620    1.5930 H   0  0  0  0  0
    1.0100   -1.4320   -1.5180 H   0  0  0  0  0
    2.4720   -2.7180   -0.1310 H   0  0  0  0  0
   -0.3060   -0.9420    1.1950 H   0  0  0  0  0
   -2.1270   -1.9880    0.0560 H   0  0  0  0  0
   -0.9470    0.1880   -1.5680 H   0  0  0  0  0
    1.8350    3.1320   -0.6770 H   0  0  0  0  0
   -4.1160    0.0220    0.2260 H   0  0  0  0  0
  1  9  1  0  0  0
  1 13  1  0  0  0
  1 14  1  0  0  0
  2  1  1  0  0  0
  2 15  1  0  0  0
  3  2  1  0  0  0
  3 16  1  0  0  0
  4  6  1  0  0  0
  4  2  1  0  0  0
  4 17  1  0  0  0
  5  4  1  0  0  0
  5 18  1  0  0  0
  6  8  1  0  0  0
  6 19  1  0  0  0
  7  6  1  0  0  0
  7 20  1  0  0  0
  8  9  1  0  0  0
  8 10  1  0  0  0
  8 21  1  0  0  0
 10 11  1  0  0  0
 11 23  1  0  0  0
 12 10  2  0  0  0
 13 22  1  0  0  0
M  END
$$$$
