MAV
  CCTOOLS-0919241034

 23 23  0  0  1  0  0  0  0  0999 V2000
    1.1880    1.5770   -0.2090 C   0  0  0  0  0
    1.2240    1.7010   -1.6320 O   0  0  0  0  0
    1.9970    0.3490    0.2170 C   0  0  0  0  0
    2.0070    0.2540    1.6430 O   0  0  0  0  0
    1.3520   -0.9080   -0.3760 C   0  0  0  0  0
    2.0580   -2.0660    0.0760 O   0  0  0  0  0
   -0.1070   -0.9860    0.0830 C   0  0  0  0  0
   -0.7380   -2.1160   -0.5210 O   0  0  0  0  0
   -0.8350    0.2940   -0.3380 C   0  0  0  0  0
   -0.1660    1.4260    0.2220 O   0  0  0  0  0
   -2.2560    0.2510    0.1620 C   0  0  0  0  0
   -2.6300    1.0500    0.9880 O   0  0  0  0  0
   -3.1060   -0.6740   -0.3100 O   0  0  0  0  0
    1.6170    2.4700    0.2450 H   0  0  0  0  0
    0.7310    2.4600   -1.9730 H   0  0  0  0  0
    3.0190    0.4410   -0.1490 H   0  0  0  0  0
    2.3980    1.0200    2.0850 H   0  0  0  0  0
    1.3920   -0.8590   -1.4640 H   0  0  0  0  0
    2.9920   -2.0800   -0.1740 H   0  0  0  0  0
   -0.1430   -1.0850    1.1680 H   0  0  0  0  0
   -1.6670   -2.2270   -0.2740 H   0  0  0  0  0
   -0.8340    0.3720   -1.4250 H   0  0  0  0  0
   -4.0070   -0.6620    0.0400 H   0  0  0  0  0
  1  3  1  0  0  0
  1  2  1  0  0  0
  1 14  1  0  0  0
  2 15  1  0  0  0
  3 16  1  0  0  0
  4  3  1  0  0  0
  4 17  1  0  0  0
  5  3  1  0  0  0
  5  6  1  0  0  0
  5 18  1  0  0  0
  6 19  1  0  0  0
  7  5  1  0  0  0
  7 20  1  0  0  0
  8  7  1  0  0  0
  8 21  1  0  0  0
  9  7  1  0  0  0
  9 10  1  0  0  0
  9 22  1  0  0  0
 10  1  1  0  0  0
 11  9  1  0  0  0
 12 11  2  0  0  0
 13 11  1  0  0  0
 13 23  1  0  0  0
M  END
$$$$
