BEM
 OpenBabel09132600403D

 33 34  0  0  1  0  0  0  0  0999 V2000
  -35.7060   13.5230  -15.9020 O   0  0  0  0  0  0  0  0  0  0  0  0
  -35.9400   13.9280  -17.2440 C   0  0  2  0  0  3  0  0  0  0  0  0
  -36.8370   15.1870  -17.2960 C   0  0  2  0  0  3  0  0  0  0  0  0
  -38.2550   14.8520  -16.8020 C   0  0  2  0  0  3  0  0  0  0  0  0
  -38.8000   13.6210  -17.5430 C   0  0  1  0  0  3  0  0  0  0  0  0
  -37.7750   12.4710  -17.4540 C   0  0  2  0  0  3  0  0  0  0  0  0
  -36.5190   12.8640  -17.9850 O   0  0  0  0  0  0  0  0  0  0  0  0
  -36.9010   15.6740  -18.6130 O   0  0  0  0  0  0  0  0  0  0  0  0
  -37.2210   14.9260  -19.1810 H   0  0  0  0  0  0  0  0  0  0  0  0
  -39.1130   15.9440  -17.0090 O   0  0  0  0  0  0  0  0  0  0  0  0
  -38.5900   16.7620  -16.7960 H   0  0  0  0  0  0  0  0  0  0  0  0
  -40.0130   13.2140  -16.9610 O   0  0  0  0  0  0  0  0  0  0  0  0
  -40.7240   13.3730  -17.6360 H   0  0  0  0  0  0  0  0  0  0  0  0
  -38.2700   11.2830  -18.2270 C   0  0  0  0  0  0  0  0  0  0  0  0
  -39.3980   11.3180  -18.7890 O   0  0  0  0  0  0  0  0  0  0  0  0
  -37.4950   10.1290  -18.2950 O   0  0  0  0  0  0  0  0  0  0  0  0
  -36.5430   10.1630  -18.6380 H   0  0  0  0  0  0  0  0  0  0  0  0
  -32.2420   11.6090  -14.7480 C   0  0  2  0  0  3  0  0  0  0  0  0
  -32.4070   13.0280  -14.1450 C   0  0  2  0  0  3  0  0  0  0  0  0
  -33.8280   13.5780  -14.3990 C   0  0  2  0  0  3  0  0  0  0  0  0
  -34.3930   13.0150  -15.7130 C   0  0  1  0  0  3  0  0  0  0  0  0
  -34.4360   11.4590  -15.6090 C   0  0  2  0  0  3  0  0  0  0  0  0
  -33.4690   10.8980  -14.7250 O   0  0  0  0  0  0  0  0  0  0  0  0
  -31.2690   10.8910  -14.0360 O   0  0  0  0  0  0  0  0  0  0  0  0
  -31.3610   11.1430  -13.0790 H   0  0  0  0  0  0  0  0  0  0  0  0
  -31.4480   13.8890  -14.7080 O   0  0  0  0  0  0  0  0  0  0  0  0
  -31.1940   14.5370  -14.0000 H   0  0  0  0  0  0  0  0  0  0  0  0
  -33.8030   14.9830  -14.4360 O   0  0  0  0  0  0  0  0  0  0  0  0
  -32.9640   15.2460  -14.8980 H   0  0  0  0  0  0  0  0  0  0  0  0
  -34.3550   10.7930  -16.9560 C   0  0  0  0  0  0  0  0  0  0  0  0
  -34.8150    9.6290  -17.1100 O   0  0  0  0  0  0  0  0  0  0  0  0
  -33.7530   11.4410  -18.0300 O   0  0  0  0  0  0  0  0  0  0  0  0
  -32.7480   11.4160  -18.1550 H   0  0  0  0  0  0  0  0  0  0  0  0
  2  1  1  1  0  0  0
  3  8  1  6  0  0  0
  3  2  1  0  0  0  0
  3  4  1  0  0  0  0
  4 10  1  6  0  0  0
  5  6  1  0  0  0  0
  5 12  1  1  0  0  0
  5  4  1  0  0  0  0
  6 14  1  6  0  0  0
  7  6  1  0  0  0  0
  7  2  1  0  0  0  0
  9  8  1  0  0  0  0
 10 11  1  0  0  0  0
 13 12  1  0  0  0  0
 15 14  2  0  0  0  0
 16 14  1  0  0  0  0
 17 16  1  0  0  0  0
 18 23  1  0  0  0  0
 18 19  1  0  0  0  0
 18 24  1  1  0  0  0
 19 26  1  6  0  0  0
 20 28  1  6  0  0  0
 20 19  1  0  0  0  0
 21  1  1  1  0  0  0
 21 22  1  0  0  0  0
 21 20  1  0  0  0  0
 22 30  1  6  0  0  0
 22 23  1  0  0  0  0
 24 25  1  0  0  0  0
 26 27  1  0  0  0  0
 29 28  1  0  0  0  0
 31 30  2  0  0  0  0
 32 30  1  0  0  0  0
 33 32  1  0  0  0  0
M  END
>  <MODEL>
6

>  <REMARK>
 VINA RESULT:    -6.777      1.480      5.912
 INTER + INTRA:         -11.063
 INTER:                  -9.726
 INTRA:                  -1.337
 UNBOUND:                -1.116
  Name = BEM
  12 active torsions:
  status: ('A' for Active; 'I' for Inactive)
    1  A    between atoms: C_1  and  O_20
    2  A    between atoms: C_2  and  O_3
    3  A    between atoms: C_4  and  O_5
    4  A    between atoms: C_6  and  O_7
    5  A    between atoms: C_8  and  C_10
    6  A    between atoms: C_10  and  O_11
    7  A    between atoms: C_13  and  O_14
    8  A    between atoms: C_15  and  O_16
    9  A    between atoms: C_17  and  O_18
   10  A    between atoms: C_19  and  O_20
   11  A    between atoms: C_21  and  C_23
   12  A    between atoms: C_23  and  O_25
                            x       y       z     vdW  Elec       q    Type
                         _______ _______ _______ _____ _____    ______ ____

>  <TORSDO>
F 12

$$$$
