BEM
 OpenBabel09132600403D

 33 34  0  0  1  0  0  0  0  0999 V2000
  -35.3000   10.5780  -15.6980 O   0  0  0  0  0  0  0  0  0  0  0  0
  -34.3250   11.2230  -16.5070 C   0  0  2  0  0  3  0  0  0  0  0  0
  -32.9190   10.6260  -16.2650 C   0  0  2  0  0  3  0  0  0  0  0  0
  -32.4360   10.9590  -14.8420 C   0  0  2  0  0  3  0  0  0  0  0  0
  -32.5700   12.4660  -14.5730 C   0  0  1  0  0  3  0  0  0  0  0  0
  -34.0040   12.9240  -14.9140 C   0  0  2  0  0  3  0  0  0  0  0  0
  -34.3300   12.6210  -16.2610 O   0  0  0  0  0  0  0  0  0  0  0  0
  -32.0120   11.1470  -17.2030 O   0  0  0  0  0  0  0  0  0  0  0  0
  -32.5340   11.3600  -18.0200 H   0  0  0  0  0  0  0  0  0  0  0  0
  -31.0980   10.5680  -14.6800 O   0  0  0  0  0  0  0  0  0  0  0  0
  -30.9160   10.5700  -13.7030 H   0  0  0  0  0  0  0  0  0  0  0  0
  -32.3020   12.7330  -13.2200 O   0  0  0  0  0  0  0  0  0  0  0  0
  -32.1960   11.8550  -12.7680 H   0  0  0  0  0  0  0  0  0  0  0  0
  -34.1280   14.4060  -14.7140 C   0  0  0  0  0  0  0  0  0  0  0  0
  -33.1650   15.1680  -15.0010 O   0  0  0  0  0  0  0  0  0  0  0  0
  -35.2970   14.9370  -14.1780 O   0  0  0  0  0  0  0  0  0  0  0  0
  -35.3190   15.2900  -13.2280 H   0  0  0  0  0  0  0  0  0  0  0  0
  -38.6820   10.7770  -18.0450 C   0  0  2  0  0  3  0  0  0  0  0  0
  -38.8840   11.3170  -16.6050 C   0  0  2  0  0  3  0  0  0  0  0  0
  -37.5320   11.4590  -15.8700 C   0  0  2  0  0  3  0  0  0  0  0  0
  -36.5360   10.4040  -16.3760 C   0  0  1  0  0  3  0  0  0  0  0  0
  -36.3310   10.6080  -17.9090 C   0  0  2  0  0  3  0  0  0  0  0  0
  -37.4400   11.2010  -18.5800 O   0  0  0  0  0  0  0  0  0  0  0  0
  -39.7260   11.2150  -18.8750 O   0  0  0  0  0  0  0  0  0  0  0  0
  -39.3390   11.3740  -19.7750 H   0  0  0  0  0  0  0  0  0  0  0  0
  -39.7310   10.4480  -15.8950 O   0  0  0  0  0  0  0  0  0  0  0  0
  -40.3270   11.0170  -15.3420 H   0  0  0  0  0  0  0  0  0  0  0  0
  -37.7210   11.3320  -14.4830 O   0  0  0  0  0  0  0  0  0  0  0  0
  -36.9380   10.8350  -14.1280 H   0  0  0  0  0  0  0  0  0  0  0  0
  -35.9220    9.3380  -18.6070 C   0  0  0  0  0  0  0  0  0  0  0  0
  -36.0590    8.2290  -18.0220 O   0  0  0  0  0  0  0  0  0  0  0  0
  -35.3710    9.3800  -19.8840 O   0  0  0  0  0  0  0  0  0  0  0  0
  -34.3970    9.1520  -20.0360 H   0  0  0  0  0  0  0  0  0  0  0  0
  2  3  1  0  0  0  0
  2  7  1  0  0  0  0
  2  1  1  1  0  0  0
  3  8  1  6  0  0  0
  3  4  1  0  0  0  0
  4 10  1  6  0  0  0
  4  5  1  0  0  0  0
  5 12  1  1  0  0  0
  6 14  1  6  0  0  0
  6  5  1  0  0  0  0
  7  6  1  0  0  0  0
  9  8  1  0  0  0  0
 10 11  1  0  0  0  0
 12 13  1  0  0  0  0
 14 16  1  0  0  0  0
 15 14  2  0  0  0  0
 16 17  1  0  0  0  0
 18 24  1  6  0  0  0
 18 19  1  0  0  0  0
 19 26  1  1  0  0  0
 19 20  1  0  0  0  0
 20 28  1  1  0  0  0
 21 20  1  0  0  0  0
 21  1  1  1  0  0  0
 22 30  1  6  0  0  0
 22 21  1  0  0  0  0
 23 18  1  0  0  0  0
 23 22  1  0  0  0  0
 25 24  1  0  0  0  0
 26 27  1  0  0  0  0
 28 29  1  0  0  0  0
 30 31  2  0  0  0  0
 32 30  1  0  0  0  0
 33 32  1  0  0  0  0
M  END
>  <MODEL>
5

>  <REMARK>
 VINA RESULT:    -6.824      1.605      3.916
 INTER + INTRA:         -11.133
 INTER:                 -10.304
 INTRA:                  -0.828
 UNBOUND:                -1.116
  Name = BEM
  12 active torsions:
  status: ('A' for Active; 'I' for Inactive)
    1  A    between atoms: C_1  and  O_20
    2  A    between atoms: C_2  and  O_3
    3  A    between atoms: C_4  and  O_5
    4  A    between atoms: C_6  and  O_7
    5  A    between atoms: C_8  and  C_10
    6  A    between atoms: C_10  and  O_11
    7  A    between atoms: C_13  and  O_14
    8  A    between atoms: C_15  and  O_16
    9  A    between atoms: C_17  and  O_18
   10  A    between atoms: C_19  and  O_20
   11  A    between atoms: C_21  and  C_23
   12  A    between atoms: C_23  and  O_25
                            x       y       z     vdW  Elec       q    Type
                         _______ _______ _______ _____ _____    ______ ____

>  <TORSDO>
F 12

$$$$
