BEM
 OpenBabel09132600403D

 33 34  0  0  1  0  0  0  0  0999 V2000
  -35.0940   10.5190  -15.7530 O   0  0  0  0  0  0  0  0  0  0  0  0
  -34.3400   11.7240  -15.7600 C   0  0  2  0  0  3  0  0  0  0  0  0
  -33.0510   11.5780  -14.9190 C   0  0  2  0  0  3  0  0  0  0  0  0
  -33.4020   11.4200  -13.4290 C   0  0  2  0  0  3  0  0  0  0  0  0
  -34.3580   12.5380  -12.9850 C   0  0  1  0  0  3  0  0  0  0  0  0
  -35.5610   12.5990  -13.9500 C   0  0  2  0  0  3  0  0  0  0  0  0
  -35.1340   12.8020  -15.2880 O   0  0  0  0  0  0  0  0  0  0  0  0
  -32.2370   12.7110  -15.0920 O   0  0  0  0  0  0  0  0  0  0  0  0
  -31.9060   12.9680  -14.1920 H   0  0  0  0  0  0  0  0  0  0  0  0
  -32.2360   11.4600  -12.6480 O   0  0  0  0  0  0  0  0  0  0  0  0
  -31.8430   12.3640  -12.7660 H   0  0  0  0  0  0  0  0  0  0  0  0
  -34.8160   12.2820  -11.6810 O   0  0  0  0  0  0  0  0  0  0  0  0
  -34.0590   11.8720  -11.1850 H   0  0  0  0  0  0  0  0  0  0  0  0
  -36.4710   13.7270  -13.5620 C   0  0  0  0  0  0  0  0  0  0  0  0
  -36.1970   14.4500  -12.5660 O   0  0  0  0  0  0  0  0  0  0  0  0
  -37.6380   13.9550  -14.2840 O   0  0  0  0  0  0  0  0  0  0  0  0
  -38.4970   14.2160  -13.8140 H   0  0  0  0  0  0  0  0  0  0  0  0
  -37.4260    9.2510  -18.9060 C   0  0  2  0  0  3  0  0  0  0  0  0
  -35.9250    8.8880  -19.0490 C   0  0  2  0  0  3  0  0  0  0  0  0
  -35.1620    9.1520  -17.7320 C   0  0  2  0  0  3  0  0  0  0  0  0
  -35.8050   10.3190  -16.9660 C   0  0  1  0  0  3  0  0  0  0  0  0
  -37.2890    9.9520  -16.6560 C   0  0  2  0  0  3  0  0  0  0  0  0
  -37.8790    9.0410  -17.5800 O   0  0  0  0  0  0  0  0  0  0  0  0
  -38.1950    8.4830  -19.7940 O   0  0  0  0  0  0  0  0  0  0  0  0
  -38.6850    7.8100  -19.2510 H   0  0  0  0  0  0  0  0  0  0  0  0
  -35.3600    9.6400  -20.0950 O   0  0  0  0  0  0  0  0  0  0  0  0
  -35.5580   10.5940  -19.9010 H   0  0  0  0  0  0  0  0  0  0  0  0
  -33.8100    9.4270  -18.0040 O   0  0  0  0  0  0  0  0  0  0  0  0
  -33.5320    8.8200  -18.7390 H   0  0  0  0  0  0  0  0  0  0  0  0
  -38.1600   11.1700  -16.5020 C   0  0  0  0  0  0  0  0  0  0  0  0
  -39.3660   11.0400  -16.1550 O   0  0  0  0  0  0  0  0  0  0  0  0
  -37.6530   12.4390  -16.7630 O   0  0  0  0  0  0  0  0  0  0  0  0
  -37.9020   13.2290  -16.1800 H   0  0  0  0  0  0  0  0  0  0  0  0
  2  1  1  1  0  0  0
  2  7  1  0  0  0  0
  2  3  1  0  0  0  0
  3  8  1  1  0  0  0
  3  4  1  0  0  0  0
  4  5  1  0  0  0  0
  4 10  1  1  0  0  0
  5 12  1  1  0  0  0
  6 14  1  1  0  0  0
  6  5  1  0  0  0  0
  7  6  1  0  0  0  0
  8  9  1  0  0  0  0
 11 10  1  0  0  0  0
 12 13  1  0  0  0  0
 14 15  2  0  0  0  0
 16 17  1  0  0  0  0
 16 14  1  0  0  0  0
 18 24  1  6  0  0  0
 18 23  1  0  0  0  0
 19 26  1  6  0  0  0
 19 18  1  0  0  0  0
 19 20  1  0  0  0  0
 20 28  1  6  0  0  0
 20 21  1  0  0  0  0
 21 22  1  0  0  0  0
 21  1  1  1  0  0  0
 22 30  1  6  0  0  0
 23 22  1  0  0  0  0
 24 25  1  0  0  0  0
 26 27  1  0  0  0  0
 29 28  1  0  0  0  0
 30 31  2  0  0  0  0
 32 30  1  0  0  0  0
 32 33  1  0  0  0  0
M  END
>  <MODEL>
7

>  <REMARK>
 VINA RESULT:    -6.641      1.754      3.139
 INTER + INTRA:         -10.863
 INTER:                  -9.246
 INTRA:                  -1.617
 UNBOUND:                -1.116
  Name = BEM
  12 active torsions:
  status: ('A' for Active; 'I' for Inactive)
    1  A    between atoms: C_1  and  O_20
    2  A    between atoms: C_2  and  O_3
    3  A    between atoms: C_4  and  O_5
    4  A    between atoms: C_6  and  O_7
    5  A    between atoms: C_8  and  C_10
    6  A    between atoms: C_10  and  O_11
    7  A    between atoms: C_13  and  O_14
    8  A    between atoms: C_15  and  O_16
    9  A    between atoms: C_17  and  O_18
   10  A    between atoms: C_19  and  O_20
   11  A    between atoms: C_21  and  C_23
   12  A    between atoms: C_23  and  O_25
                            x       y       z     vdW  Elec       q    Type
                         _______ _______ _______ _____ _____    ______ ____

>  <TORSDO>
F 12

$$$$
