BEM
 OpenBabel09132600403D

 33 34  0  0  1  0  0  0  0  0999 V2000
  -34.3880   11.1430  -13.0180 O   0  0  0  0  0  0  0  0  0  0  0  0
  -34.0220   11.1970  -14.3900 C   0  0  2  0  0  3  0  0  0  0  0  0
  -32.5970   11.7730  -14.5630 C   0  0  2  0  0  3  0  0  0  0  0  0
  -32.5700   13.2570  -14.1570 C   0  0  2  0  0  3  0  0  0  0  0  0
  -33.6860   14.0270  -14.8790 C   0  0  1  0  0  3  0  0  0  0  0  0
  -35.0320   13.3030  -14.6650 C   0  0  2  0  0  3  0  0  0  0  0  0
  -34.9690   11.9610  -15.1210 O   0  0  0  0  0  0  0  0  0  0  0  0
  -32.1890   11.6440  -15.9010 O   0  0  0  0  0  0  0  0  0  0  0  0
  -31.6940   12.4720  -16.1320 H   0  0  0  0  0  0  0  0  0  0  0  0
  -31.3250   13.8240  -14.4740 O   0  0  0  0  0  0  0  0  0  0  0  0
  -31.4510   14.8100  -14.4720 H   0  0  0  0  0  0  0  0  0  0  0  0
  -33.7700   15.3340  -14.3680 O   0  0  0  0  0  0  0  0  0  0  0  0
  -33.8440   15.2530  -13.3820 H   0  0  0  0  0  0  0  0  0  0  0  0
  -36.1200   14.0130  -15.4180 C   0  0  0  0  0  0  0  0  0  0  0  0
  -35.8760   14.5420  -16.5360 O   0  0  0  0  0  0  0  0  0  0  0  0
  -37.3920   14.1170  -14.8630 O   0  0  0  0  0  0  0  0  0  0  0  0
  -38.2110   14.1940  -15.4540 H   0  0  0  0  0  0  0  0  0  0  0  0
  -35.7190    7.7280  -11.1310 C   0  0  2  0  0  3  0  0  0  0  0  0
  -34.1750    7.8760  -11.1490 C   0  0  2  0  0  3  0  0  0  0  0  0
  -33.7570    9.2840  -11.6270 C   0  0  2  0  0  3  0  0  0  0  0  0
  -34.7920    9.8420  -12.6170 C   0  0  1  0  0  3  0  0  0  0  0  0
  -36.1760    9.9140  -11.9000 C   0  0  2  0  0  3  0  0  0  0  0  0
  -36.3470    8.9670  -10.8480 O   0  0  0  0  0  0  0  0  0  0  0  0
  -36.1020    6.7770  -10.1730 O   0  0  0  0  0  0  0  0  0  0  0  0
  -35.7690    7.0960   -9.2930 H   0  0  0  0  0  0  0  0  0  0  0  0
  -33.6220    6.8940  -11.9910 O   0  0  0  0  0  0  0  0  0  0  0  0
  -32.8730    6.4770  -11.4910 H   0  0  0  0  0  0  0  0  0  0  0  0
  -32.4840    9.2330  -12.2230 O   0  0  0  0  0  0  0  0  0  0  0  0
  -32.0610   10.1200  -12.0810 H   0  0  0  0  0  0  0  0  0  0  0  0
  -37.3270    9.8270  -12.8670 C   0  0  0  0  0  0  0  0  0  0  0  0
  -37.1600    9.2880  -13.9940 O   0  0  0  0  0  0  0  0  0  0  0  0
  -38.5690   10.3610  -12.5360 O   0  0  0  0  0  0  0  0  0  0  0  0
  -38.9300   10.2900  -11.5930 H   0  0  0  0  0  0  0  0  0  0  0  0
  2  1  1  1  0  0  0
  3  8  1  6  0  0  0
  3  2  1  0  0  0  0
  3  4  1  0  0  0  0
  4 10  1  6  0  0  0
  5  6  1  0  0  0  0
  5 12  1  1  0  0  0
  5  4  1  0  0  0  0
  6 14  1  6  0  0  0
  7  6  1  0  0  0  0
  7  2  1  0  0  0  0
  9  8  1  0  0  0  0
 10 11  1  0  0  0  0
 12 13  1  0  0  0  0
 14 16  1  0  0  0  0
 15 14  2  0  0  0  0
 17 16  1  0  0  0  0
 18 23  1  0  0  0  0
 18 24  1  1  0  0  0
 19 26  1  6  0  0  0
 19 18  1  0  0  0  0
 20 28  1  6  0  0  0
 20 19  1  0  0  0  0
 21  1  1  1  0  0  0
 21 22  1  0  0  0  0
 21 20  1  0  0  0  0
 22 30  1  6  0  0  0
 22 23  1  0  0  0  0
 24 25  1  0  0  0  0
 26 27  1  0  0  0  0
 28 29  1  0  0  0  0
 30 32  1  0  0  0  0
 31 30  2  0  0  0  0
 32 33  1  0  0  0  0
M  END
>  <MODEL>
19

>  <REMARK>
 VINA RESULT:    -5.951      3.171      5.617
 INTER + INTRA:          -9.850
 INTER:                  -8.829
 INTRA:                  -1.020
 UNBOUND:                -1.116
  Name = BEM
  12 active torsions:
  status: ('A' for Active; 'I' for Inactive)
    1  A    between atoms: C_1  and  O_20
    2  A    between atoms: C_2  and  O_3
    3  A    between atoms: C_4  and  O_5
    4  A    between atoms: C_6  and  O_7
    5  A    between atoms: C_8  and  C_10
    6  A    between atoms: C_10  and  O_11
    7  A    between atoms: C_13  and  O_14
    8  A    between atoms: C_15  and  O_16
    9  A    between atoms: C_17  and  O_18
   10  A    between atoms: C_19  and  O_20
   11  A    between atoms: C_21  and  C_23
   12  A    between atoms: C_23  and  O_25
                            x       y       z     vdW  Elec       q    Type
                         _______ _______ _______ _____ _____    ______ ____

>  <TORSDO>
F 12

$$$$
