BEM
 OpenBabel09132600403D

 33 34  0  0  1  0  0  0  0  0999 V2000
  -34.8290   10.0390  -12.6290 O   0  0  0  0  0  0  0  0  0  0  0  0
  -33.6400    9.9030  -13.3960 C   0  0  2  0  0  3  0  0  0  0  0  0
  -32.6260   11.0180  -13.0520 C   0  0  2  0  0  3  0  0  0  0  0  0
  -33.1600   12.3850  -13.5150 C   0  0  2  0  0  3  0  0  0  0  0  0
  -33.5940   12.3160  -14.9880 C   0  0  1  0  0  3  0  0  0  0  0  0
  -34.5530   11.1240  -15.1870 C   0  0  2  0  0  3  0  0  0  0  0  0
  -33.9470    9.9070  -14.7820 O   0  0  0  0  0  0  0  0  0  0  0  0
  -31.3970   10.7560  -13.6810 O   0  0  0  0  0  0  0  0  0  0  0  0
  -31.3970    9.7940  -13.9230 H   0  0  0  0  0  0  0  0  0  0  0  0
  -32.1720   13.3700  -13.3600 O   0  0  0  0  0  0  0  0  0  0  0  0
  -32.6460   14.2400  -13.2780 H   0  0  0  0  0  0  0  0  0  0  0  0
  -34.2450   13.5080  -15.3480 O   0  0  0  0  0  0  0  0  0  0  0  0
  -34.7570   13.8090  -14.5520 H   0  0  0  0  0  0  0  0  0  0  0  0
  -34.9340   11.0100  -16.6340 C   0  0  0  0  0  0  0  0  0  0  0  0
  -35.9910   10.4070  -16.9660 O   0  0  0  0  0  0  0  0  0  0  0  0
  -34.1020   11.5420  -17.6130 O   0  0  0  0  0  0  0  0  0  0  0  0
  -33.0980   11.5780  -17.4780 H   0  0  0  0  0  0  0  0  0  0  0  0
  -34.9060    9.1830   -8.5980 C   0  0  2  0  0  3  0  0  0  0  0  0
  -35.3130   10.6400   -8.9390 C   0  0  2  0  0  3  0  0  0  0  0  0
  -35.5180   10.8190  -10.4590 C   0  0  2  0  0  3  0  0  0  0  0  0
  -34.5980    9.8650  -11.2390 C   0  0  1  0  0  3  0  0  0  0  0  0
  -34.9370    8.3990  -10.8250 C   0  0  2  0  0  3  0  0  0  0  0  0
  -35.4790    8.2650   -9.5130 O   0  0  0  0  0  0  0  0  0  0  0  0
  -35.3110    8.8620   -7.2930 O   0  0  0  0  0  0  0  0  0  0  0  0
  -36.3040    8.8530   -7.2880 H   0  0  0  0  0  0  0  0  0  0  0  0
  -34.3190   11.5230   -8.4780 O   0  0  0  0  0  0  0  0  0  0  0  0
  -34.4630   11.6320   -7.5020 H   0  0  0  0  0  0  0  0  0  0  0  0
  -35.2680   12.1520  -10.8280 O   0  0  0  0  0  0  0  0  0  0  0  0
  -34.5420   12.4850  -10.2380 H   0  0  0  0  0  0  0  0  0  0  0  0
  -33.7670    7.4690  -11.0000 C   0  0  0  0  0  0  0  0  0  0  0  0
  -33.7180    6.7020  -11.9990 O   0  0  0  0  0  0  0  0  0  0  0  0
  -32.7480    7.4310  -10.0530 O   0  0  0  0  0  0  0  0  0  0  0  0
  -31.8760    7.9220  -10.2080 H   0  0  0  0  0  0  0  0  0  0  0  0
  2  3  1  0  0  0  0
  2  1  1  1  0  0  0
  3  8  1  6  0  0  0
  4 10  1  6  0  0  0
  4  3  1  0  0  0  0
  5 12  1  1  0  0  0
  5  4  1  0  0  0  0
  6 14  1  6  0  0  0
  6  5  1  0  0  0  0
  6  7  1  0  0  0  0
  7  2  1  0  0  0  0
  9  8  1  0  0  0  0
 10 11  1  0  0  0  0
 12 13  1  0  0  0  0
 15 14  2  0  0  0  0
 16 17  1  0  0  0  0
 16 14  1  0  0  0  0
 18 24  1  1  0  0  0
 19 18  1  0  0  0  0
 19 26  1  6  0  0  0
 20 28  1  6  0  0  0
 20 19  1  0  0  0  0
 21  1  1  6  0  0  0
 21 22  1  0  0  0  0
 21 20  1  0  0  0  0
 22 30  1  1  0  0  0
 22 23  1  0  0  0  0
 23 18  1  0  0  0  0
 24 25  1  0  0  0  0
 26 27  1  0  0  0  0
 28 29  1  0  0  0  0
 30 32  1  0  0  0  0
 31 30  2  0  0  0  0
 33 32  1  0  0  0  0
M  END
>  <MODEL>
12

>  <REMARK>
 VINA RESULT:    -6.286      3.664      7.175
 INTER + INTRA:         -10.342
 INTER:                  -9.546
 INTRA:                  -0.796
 UNBOUND:                -1.116
  Name = BEM
  12 active torsions:
  status: ('A' for Active; 'I' for Inactive)
    1  A    between atoms: C_1  and  O_20
    2  A    between atoms: C_2  and  O_3
    3  A    between atoms: C_4  and  O_5
    4  A    between atoms: C_6  and  O_7
    5  A    between atoms: C_8  and  C_10
    6  A    between atoms: C_10  and  O_11
    7  A    between atoms: C_13  and  O_14
    8  A    between atoms: C_15  and  O_16
    9  A    between atoms: C_17  and  O_18
   10  A    between atoms: C_19  and  O_20
   11  A    between atoms: C_21  and  C_23
   12  A    between atoms: C_23  and  O_25
                            x       y       z     vdW  Elec       q    Type
                         _______ _______ _______ _____ _____    ______ ____

>  <TORSDO>
F 12

$$$$
