BEM
 OpenBabel09132600403D

 33 34  0  0  1  0  0  0  0  0999 V2000
  -33.6810   10.4700  -11.8240 O   0  0  0  0  0  0  0  0  0  0  0  0
  -34.6380   11.1650  -12.6130 C   0  0  2  0  0  3  0  0  0  0  0  0
  -35.0090   10.3560  -13.8770 C   0  0  2  0  0  3  0  0  0  0  0  0
  -33.8010   10.2680  -14.8270 C   0  0  2  0  0  3  0  0  0  0  0  0
  -33.2230   11.6690  -15.0840 C   0  0  1  0  0  3  0  0  0  0  0  0
  -32.9610   12.3720  -13.7360 C   0  0  2  0  0  3  0  0  0  0  0  0
  -34.1470   12.4500  -12.9610 O   0  0  0  0  0  0  0  0  0  0  0  0
  -36.0850   10.9710  -14.5400 O   0  0  0  0  0  0  0  0  0  0  0  0
  -35.8790   11.9410  -14.5830 H   0  0  0  0  0  0  0  0  0  0  0  0
  -34.1830    9.6850  -16.0460 O   0  0  0  0  0  0  0  0  0  0  0  0
  -33.3560    9.5820  -16.5860 H   0  0  0  0  0  0  0  0  0  0  0  0
  -32.0190   11.5620  -15.8000 O   0  0  0  0  0  0  0  0  0  0  0  0
  -32.1170   12.1210  -16.6150 H   0  0  0  0  0  0  0  0  0  0  0  0
  -32.4540   13.7640  -13.9760 C   0  0  0  0  0  0  0  0  0  0  0  0
  -33.1780   14.7590  -13.7000 O   0  0  0  0  0  0  0  0  0  0  0  0
  -31.1950   13.9560  -14.5370 O   0  0  0  0  0  0  0  0  0  0  0  0
  -30.9740   13.5880  -15.4550 H   0  0  0  0  0  0  0  0  0  0  0  0
  -36.0020    8.3980   -9.1190 C   0  0  2  0  0  3  0  0  0  0  0  0
  -36.1780    9.9370   -9.0490 C   0  0  2  0  0  3  0  0  0  0  0  0
  -35.4920   10.6300  -10.2480 C   0  0  2  0  0  3  0  0  0  0  0  0
  -34.2720    9.8180  -10.7090 C   0  0  1  0  0  3  0  0  0  0  0  0
  -34.7520    8.3920  -11.1230 C   0  0  2  0  0  3  0  0  0  0  0  0
  -35.9360    7.9510  -10.4630 O   0  0  0  0  0  0  0  0  0  0  0  0
  -37.0650    7.7600   -8.4620 O   0  0  0  0  0  0  0  0  0  0  0  0
  -37.1390    6.8460   -8.8430 H   0  0  0  0  0  0  0  0  0  0  0  0
  -35.6380   10.4140   -7.8410 O   0  0  0  0  0  0  0  0  0  0  0  0
  -36.2610   11.1090   -7.5040 H   0  0  0  0  0  0  0  0  0  0  0  0
  -35.1090   11.9360   -9.8960 O   0  0  0  0  0  0  0  0  0  0  0  0
  -34.1170   11.9440   -9.8450 H   0  0  0  0  0  0  0  0  0  0  0  0
  -33.6670    7.3590  -10.9820 C   0  0  0  0  0  0  0  0  0  0  0  0
  -32.7780    7.4980  -10.0990 O   0  0  0  0  0  0  0  0  0  0  0  0
  -33.6210    6.2610  -11.8370 O   0  0  0  0  0  0  0  0  0  0  0  0
  -33.0790    5.4400  -11.5990 H   0  0  0  0  0  0  0  0  0  0  0  0
  2  1  1  6  0  0  0
  3  8  1  6  0  0  0
  3  2  1  0  0  0  0
  4 10  1  6  0  0  0
  4  3  1  0  0  0  0
  5 12  1  1  0  0  0
  5  4  1  0  0  0  0
  5  6  1  0  0  0  0
  6 14  1  6  0  0  0
  6  7  1  0  0  0  0
  7  2  1  0  0  0  0
  9  8  1  0  0  0  0
 11 10  1  0  0  0  0
 13 12  1  0  0  0  0
 14 15  2  0  0  0  0
 16 14  1  0  0  0  0
 17 16  1  0  0  0  0
 18 19  1  0  0  0  0
 18 24  1  6  0  0  0
 19 26  1  1  0  0  0
 20 28  1  1  0  0  0
 20 19  1  0  0  0  0
 21  1  1  6  0  0  0
 21 20  1  0  0  0  0
 22 30  1  1  0  0  0
 22 21  1  0  0  0  0
 22 23  1  0  0  0  0
 23 18  1  0  0  0  0
 25 24  1  0  0  0  0
 26 27  1  0  0  0  0
 28 29  1  0  0  0  0
 30 31  2  0  0  0  0
 32 33  1  0  0  0  0
 32 30  1  0  0  0  0
M  END
>  <MODEL>
17

>  <REMARK>
 VINA RESULT:    -6.028      3.906      7.119
 INTER + INTRA:          -9.964
 INTER:                  -9.377
 INTRA:                  -0.587
 UNBOUND:                -1.116
  Name = BEM
  12 active torsions:
  status: ('A' for Active; 'I' for Inactive)
    1  A    between atoms: C_1  and  O_20
    2  A    between atoms: C_2  and  O_3
    3  A    between atoms: C_4  and  O_5
    4  A    between atoms: C_6  and  O_7
    5  A    between atoms: C_8  and  C_10
    6  A    between atoms: C_10  and  O_11
    7  A    between atoms: C_13  and  O_14
    8  A    between atoms: C_15  and  O_16
    9  A    between atoms: C_17  and  O_18
   10  A    between atoms: C_19  and  O_20
   11  A    between atoms: C_21  and  C_23
   12  A    between atoms: C_23  and  O_25
                            x       y       z     vdW  Elec       q    Type
                         _______ _______ _______ _____ _____    ______ ____

>  <TORSDO>
F 12

$$$$
