BEM
 OpenBabel09132600403D

 33 34  0  0  1  0  0  0  0  0999 V2000
  -34.6570   12.5960  -17.0170 O   0  0  0  0  0  0  0  0  0  0  0  0
  -35.0920   12.7180  -15.6690 C   0  0  2  0  0  3  0  0  0  0  0  0
  -34.9820   14.1810  -15.1790 C   0  0  2  0  0  3  0  0  0  0  0  0
  -33.5050   14.6020  -15.0870 C   0  0  2  0  0  3  0  0  0  0  0  0
  -32.7070   13.5700  -14.2740 C   0  0  1  0  0  3  0  0  0  0  0  0
  -32.9620   12.1590  -14.8420 C   0  0  2  0  0  3  0  0  0  0  0  0
  -34.3470   11.8470  -14.8330 O   0  0  0  0  0  0  0  0  0  0  0  0
  -35.5870   14.3090  -13.9180 O   0  0  0  0  0  0  0  0  0  0  0  0
  -34.9890   14.8780  -13.3680 H   0  0  0  0  0  0  0  0  0  0  0  0
  -33.3970   15.8640  -14.4820 O   0  0  0  0  0  0  0  0  0  0  0  0
  -32.8020   16.4090  -15.0620 H   0  0  0  0  0  0  0  0  0  0  0  0
  -31.3350   13.8650  -14.3490 O   0  0  0  0  0  0  0  0  0  0  0  0
  -30.9270   13.5580  -13.4960 H   0  0  0  0  0  0  0  0  0  0  0  0
  -32.2370   11.1360  -14.0170 C   0  0  0  0  0  0  0  0  0  0  0  0
  -32.7790   10.6520  -12.9870 O   0  0  0  0  0  0  0  0  0  0  0  0
  -30.9480   10.7480  -14.3710 O   0  0  0  0  0  0  0  0  0  0  0  0
  -30.5040   11.1200  -15.2030 H   0  0  0  0  0  0  0  0  0  0  0  0
  -37.4850   10.0290  -18.5660 C   0  0  2  0  0  3  0  0  0  0  0  0
  -36.0450    9.4560  -18.5740 C   0  0  2  0  0  3  0  0  0  0  0  0
  -35.0880   10.3450  -17.7500 C   0  0  2  0  0  3  0  0  0  0  0  0
  -35.5440   11.8120  -17.8020 C   0  0  1  0  0  3  0  0  0  0  0  0
  -36.9890   11.9040  -17.2200 C   0  0  2  0  0  3  0  0  0  0  0  0
  -37.7580   10.7120  -17.3540 O   0  0  0  0  0  0  0  0  0  0  0  0
  -38.4180    8.9950  -18.7440 O   0  0  0  0  0  0  0  0  0  0  0  0
  -39.2600    9.2800  -18.3020 H   0  0  0  0  0  0  0  0  0  0  0  0
  -35.5890    9.3550  -19.9010 O   0  0  0  0  0  0  0  0  0  0  0  0
  -35.8780   10.1830  -20.3660 H   0  0  0  0  0  0  0  0  0  0  0  0
  -33.7740   10.2220  -18.2360 O   0  0  0  0  0  0  0  0  0  0  0  0
  -33.1660   10.3370  -17.4600 H   0  0  0  0  0  0  0  0  0  0  0  0
  -37.7540   13.0780  -17.7700 C   0  0  0  0  0  0  0  0  0  0  0  0
  -38.9930   12.9770  -17.9790 O   0  0  0  0  0  0  0  0  0  0  0  0
  -37.1000   14.2690  -18.0720 O   0  0  0  0  0  0  0  0  0  0  0  0
  -36.3310   14.5990  -17.5020 H   0  0  0  0  0  0  0  0  0  0  0  0
  2  1  1  6  0  0  0
  2  3  1  0  0  0  0
  2  7  1  0  0  0  0
  3  4  1  0  0  0  0
  3  8  1  1  0  0  0
  4 10  1  1  0  0  0
  4  5  1  0  0  0  0
  5 12  1  6  0  0  0
  6  7  1  0  0  0  0
  6  5  1  0  0  0  0
  6 14  1  1  0  0  0
  8  9  1  0  0  0  0
 11 10  1  0  0  0  0
 12 13  1  0  0  0  0
 14 15  2  0  0  0  0
 16 14  1  0  0  0  0
 17 16  1  0  0  0  0
 18 24  1  1  0  0  0
 18 23  1  0  0  0  0
 19 26  1  6  0  0  0
 19 18  1  0  0  0  0
 19 20  1  0  0  0  0
 20 28  1  6  0  0  0
 21 20  1  0  0  0  0
 21 22  1  0  0  0  0
 21  1  1  1  0  0  0
 22 30  1  6  0  0  0
 23 22  1  0  0  0  0
 24 25  1  0  0  0  0
 27 26  1  0  0  0  0
 28 29  1  0  0  0  0
 31 30  2  0  0  0  0
 32 30  1  0  0  0  0
 32 33  1  0  0  0  0
M  END
>  <MODEL>
1

>  <REMARK>
 VINA RESULT:    -7.289      0.000      0.000
 INTER + INTRA:         -11.815
 INTER:                 -10.698
 INTRA:                  -1.116
 UNBOUND:                -1.116
  Name = BEM
  12 active torsions:
  status: ('A' for Active; 'I' for Inactive)
    1  A    between atoms: C_1  and  O_20
    2  A    between atoms: C_2  and  O_3
    3  A    between atoms: C_4  and  O_5
    4  A    between atoms: C_6  and  O_7
    5  A    between atoms: C_8  and  C_10
    6  A    between atoms: C_10  and  O_11
    7  A    between atoms: C_13  and  O_14
    8  A    between atoms: C_15  and  O_16
    9  A    between atoms: C_17  and  O_18
   10  A    between atoms: C_19  and  O_20
   11  A    between atoms: C_21  and  C_23
   12  A    between atoms: C_23  and  O_25
                            x       y       z     vdW  Elec       q    Type
                         _______ _______ _______ _____ _____    ______ ____

>  <TORSDO>
F 12

$$$$
