BEM
 OpenBabel09132600403D

 33 34  0  0  1  0  0  0  0  0999 V2000
  -35.8170    9.3810  -14.2040 O   0  0  0  0  0  0  0  0  0  0  0  0
  -35.7430   10.7340  -14.6340 C   0  0  2  0  0  3  0  0  0  0  0  0
  -35.9130   10.8400  -16.1680 C   0  0  2  0  0  3  0  0  0  0  0  0
  -34.7090   10.2020  -16.8830 C   0  0  2  0  0  3  0  0  0  0  0  0
  -33.3950   10.7690  -16.3220 C   0  0  1  0  0  3  0  0  0  0  0  0
  -33.3970   10.6480  -14.7840 C   0  0  2  0  0  3  0  0  0  0  0  0
  -34.5160   11.3140  -14.2200 O   0  0  0  0  0  0  0  0  0  0  0  0
  -36.0230   12.1890  -16.5440 O   0  0  0  0  0  0  0  0  0  0  0  0
  -36.1710   12.7080  -15.7110 H   0  0  0  0  0  0  0  0  0  0  0  0
  -34.7780   10.4480  -18.2630 O   0  0  0  0  0  0  0  0  0  0  0  0
  -33.8440   10.5700  -18.5790 H   0  0  0  0  0  0  0  0  0  0  0  0
  -32.3060   10.0530  -16.8480 O   0  0  0  0  0  0  0  0  0  0  0  0
  -32.6180    9.6320  -17.6920 H   0  0  0  0  0  0  0  0  0  0  0  0
  -32.1450   11.2550  -14.2220 C   0  0  0  0  0  0  0  0  0  0  0  0
  -32.2150   12.2450  -13.4430 O   0  0  0  0  0  0  0  0  0  0  0  0
  -30.9030   10.7460  -14.5880 O   0  0  0  0  0  0  0  0  0  0  0  0
  -30.7510   10.3640  -15.5150 H   0  0  0  0  0  0  0  0  0  0  0  0
  -36.7470    8.2510  -10.3510 C   0  0  2  0  0  3  0  0  0  0  0  0
  -37.9810    8.3900  -11.2800 C   0  0  2  0  0  3  0  0  0  0  0  0
  -37.5500    8.5540  -12.7550 C   0  0  2  0  0  3  0  0  0  0  0  0
  -36.1920    9.2680  -12.8390 C   0  0  1  0  0  3  0  0  0  0  0  0
  -35.1350    8.4180  -12.0680 C   0  0  2  0  0  3  0  0  0  0  0  0
  -35.6720    7.6140  -11.0200 O   0  0  0  0  0  0  0  0  0  0  0  0
  -37.0880    7.5170   -9.2030 O   0  0  0  0  0  0  0  0  0  0  0  0
  -38.0670    7.3550   -9.2390 H   0  0  0  0  0  0  0  0  0  0  0  0
  -38.7480    9.4970  -10.8750 O   0  0  0  0  0  0  0  0  0  0  0  0
  -38.1630   10.0560  -10.3000 H   0  0  0  0  0  0  0  0  0  0  0  0
  -38.5280    9.2710  -13.4670 O   0  0  0  0  0  0  0  0  0  0  0  0
  -38.0630    9.7340  -14.2120 H   0  0  0  0  0  0  0  0  0  0  0  0
  -33.9970    9.2530  -11.5470 C   0  0  0  0  0  0  0  0  0  0  0  0
  -32.9050    8.7030  -11.2370 O   0  0  0  0  0  0  0  0  0  0  0  0
  -34.1470   10.6270  -11.3820 O   0  0  0  0  0  0  0  0  0  0  0  0
  -34.2780   11.0280  -10.4610 H   0  0  0  0  0  0  0  0  0  0  0  0
  2  7  1  0  0  0  0
  2  1  1  6  0  0  0
  3  8  1  1  0  0  0
  3  2  1  0  0  0  0
  4 10  1  6  0  0  0
  4  5  1  0  0  0  0
  4  3  1  0  0  0  0
  5 12  1  6  0  0  0
  5  6  1  0  0  0  0
  6 14  1  1  0  0  0
  6  7  1  0  0  0  0
  8  9  1  0  0  0  0
 11 10  1  0  0  0  0
 13 12  1  0  0  0  0
 14 15  2  0  0  0  0
 16 14  1  0  0  0  0
 17 16  1  0  0  0  0
 18 24  1  1  0  0  0
 19 26  1  1  0  0  0
 19 18  1  0  0  0  0
 20 28  1  6  0  0  0
 20 19  1  0  0  0  0
 21  1  1  6  0  0  0
 21 20  1  0  0  0  0
 21 22  1  0  0  0  0
 22 30  1  1  0  0  0
 22 23  1  0  0  0  0
 23 18  1  0  0  0  0
 25 24  1  0  0  0  0
 26 27  1  0  0  0  0
 29 28  1  0  0  0  0
 30 32  1  0  0  0  0
 30 31  2  0  0  0  0
 32 33  1  0  0  0  0
M  END
>  <MODEL>
18

>  <REMARK>
 VINA RESULT:    -6.000      3.703      6.062
 INTER + INTRA:          -9.922
 INTER:                  -8.430
 INTRA:                  -1.492
 UNBOUND:                -1.116
  Name = BEM
  12 active torsions:
  status: ('A' for Active; 'I' for Inactive)
    1  A    between atoms: C_1  and  O_20
    2  A    between atoms: C_2  and  O_3
    3  A    between atoms: C_4  and  O_5
    4  A    between atoms: C_6  and  O_7
    5  A    between atoms: C_8  and  C_10
    6  A    between atoms: C_10  and  O_11
    7  A    between atoms: C_13  and  O_14
    8  A    between atoms: C_15  and  O_16
    9  A    between atoms: C_17  and  O_18
   10  A    between atoms: C_19  and  O_20
   11  A    between atoms: C_21  and  C_23
   12  A    between atoms: C_23  and  O_25
                            x       y       z     vdW  Elec       q    Type
                         _______ _______ _______ _____ _____    ______ ____

>  <TORSDO>
F 12

$$$$
