BEM
 OpenBabel09132600403D

 33 34  0  0  1  0  0  0  0  0999 V2000
  -34.8790   12.8520  -16.6000 O   0  0  0  0  0  0  0  0  0  0  0  0
  -35.0840   13.0830  -15.2120 C   0  0  2  0  0  3  0  0  0  0  0  0
  -34.8190   14.5630  -14.8500 C   0  0  2  0  0  3  0  0  0  0  0  0
  -33.3270   14.8950  -15.0200 C   0  0  2  0  0  3  0  0  0  0  0  0
  -32.4640   13.8660  -14.2730 C   0  0  1  0  0  3  0  0  0  0  0  0
  -32.8820   12.4410  -14.6930 C   0  0  2  0  0  3  0  0  0  0  0  0
  -34.2610   12.2190  -14.4440 O   0  0  0  0  0  0  0  0  0  0  0  0
  -35.2060   14.8060  -13.5210 O   0  0  0  0  0  0  0  0  0  0  0  0
  -34.9670   15.7480  -13.3190 H   0  0  0  0  0  0  0  0  0  0  0  0
  -33.0560   16.1820  -14.5300 O   0  0  0  0  0  0  0  0  0  0  0  0
  -33.6370   16.3140  -13.7350 H   0  0  0  0  0  0  0  0  0  0  0  0
  -31.1080   14.0680  -14.5820 O   0  0  0  0  0  0  0  0  0  0  0  0
  -30.6890   13.1700  -14.6440 H   0  0  0  0  0  0  0  0  0  0  0  0
  -32.0870   11.4270  -13.9220 C   0  0  0  0  0  0  0  0  0  0  0  0
  -32.3450   11.2100  -12.7070 O   0  0  0  0  0  0  0  0  0  0  0  0
  -31.0410   10.7510  -14.5420 O   0  0  0  0  0  0  0  0  0  0  0  0
  -30.7150    9.8600  -14.1850 H   0  0  0  0  0  0  0  0  0  0  0  0
  -36.2310    9.5080  -18.5950 C   0  0  2  0  0  3  0  0  0  0  0  0
  -37.2860   10.6390  -18.4770 C   0  0  2  0  0  3  0  0  0  0  0  0
  -36.6440   11.9460  -17.9620 C   0  0  2  0  0  3  0  0  0  0  0  0
  -35.4580   11.6310  -17.0360 C   0  0  1  0  0  3  0  0  0  0  0  0
  -34.4070   10.8040  -17.8390 C   0  0  2  0  0  3  0  0  0  0  0  0
  -34.9510   10.0330  -18.9070 O   0  0  0  0  0  0  0  0  0  0  0  0
  -36.6170    8.5890  -19.5830 O   0  0  0  0  0  0  0  0  0  0  0  0
  -36.0020    7.8120  -19.5170 H   0  0  0  0  0  0  0  0  0  0  0  0
  -38.3140   10.2300  -17.6090 O   0  0  0  0  0  0  0  0  0  0  0  0
  -39.1090   10.0440  -18.1740 H   0  0  0  0  0  0  0  0  0  0  0  0
  -37.6020   12.7220  -17.2860 O   0  0  0  0  0  0  0  0  0  0  0  0
  -37.1980   12.9940  -16.4210 H   0  0  0  0  0  0  0  0  0  0  0  0
  -33.5640    9.9310  -16.9480 C   0  0  0  0  0  0  0  0  0  0  0  0
  -32.3400    9.7690  -17.2050 O   0  0  0  0  0  0  0  0  0  0  0  0
  -34.1290    9.2800  -15.8560 O   0  0  0  0  0  0  0  0  0  0  0  0
  -34.4680    9.8030  -15.0580 H   0  0  0  0  0  0  0  0  0  0  0  0
  2  1  1  6  0  0  0
  2  3  1  0  0  0  0
  2  7  1  0  0  0  0
  3  8  1  1  0  0  0
  4  3  1  0  0  0  0
  4 10  1  1  0  0  0
  4  5  1  0  0  0  0
  5 12  1  6  0  0  0
  6  7  1  0  0  0  0
  6  5  1  0  0  0  0
  6 14  1  1  0  0  0
  8  9  1  0  0  0  0
 10 11  1  0  0  0  0
 13 12  1  0  0  0  0
 14 15  2  0  0  0  0
 16 17  1  0  0  0  0
 16 14  1  0  0  0  0
 18 24  1  6  0  0  0
 18 19  1  0  0  0  0
 19 20  1  0  0  0  0
 19 26  1  1  0  0  0
 20 28  1  1  0  0  0
 20 21  1  0  0  0  0
 21  1  1  6  0  0  0
 22 21  1  0  0  0  0
 22 30  1  1  0  0  0
 23 18  1  0  0  0  0
 23 22  1  0  0  0  0
 24 25  1  0  0  0  0
 27 26  1  0  0  0  0
 28 29  1  0  0  0  0
 30 32  1  0  0  0  0
 31 30  2  0  0  0  0
 32 33  1  0  0  0  0
M  END
>  <MODEL>
2

>  <REMARK>
 VINA RESULT:    -7.282      1.010      2.786
 INTER + INTRA:         -11.804
 INTER:                 -10.516
 INTRA:                  -1.289
 UNBOUND:                -1.116
  Name = BEM
  12 active torsions:
  status: ('A' for Active; 'I' for Inactive)
    1  A    between atoms: C_1  and  O_20
    2  A    between atoms: C_2  and  O_3
    3  A    between atoms: C_4  and  O_5
    4  A    between atoms: C_6  and  O_7
    5  A    between atoms: C_8  and  C_10
    6  A    between atoms: C_10  and  O_11
    7  A    between atoms: C_13  and  O_14
    8  A    between atoms: C_15  and  O_16
    9  A    between atoms: C_17  and  O_18
   10  A    between atoms: C_19  and  O_20
   11  A    between atoms: C_21  and  C_23
   12  A    between atoms: C_23  and  O_25
                            x       y       z     vdW  Elec       q    Type
                         _______ _______ _______ _____ _____    ______ ____

>  <TORSDO>
F 12

$$$$
