BEM
 OpenBabel09132600403D

 33 34  0  0  1  0  0  0  0  0999 V2000
  -35.4610    9.5500  -12.9240 O   0  0  0  0  0  0  0  0  0  0  0  0
  -34.7160   10.6630  -12.4470 C   0  0  2  0  0  3  0  0  0  0  0  0
  -35.5090   11.9800  -12.6230 C   0  0  2  0  0  3  0  0  0  0  0  0
  -35.6710   12.3080  -14.1170 C   0  0  2  0  0  3  0  0  0  0  0  0
  -34.3080   12.2590  -14.8240 C   0  0  1  0  0  3  0  0  0  0  0  0
  -33.6130   10.9170  -14.5090 C   0  0  2  0  0  3  0  0  0  0  0  0
  -33.4630   10.7360  -13.1100 O   0  0  0  0  0  0  0  0  0  0  0  0
  -34.8360   13.0320  -11.9800 O   0  0  0  0  0  0  0  0  0  0  0  0
  -34.4820   12.6680  -11.1270 H   0  0  0  0  0  0  0  0  0  0  0  0
  -36.2380   13.5830  -14.2750 O   0  0  0  0  0  0  0  0  0  0  0  0
  -35.9390   13.9220  -15.1600 H   0  0  0  0  0  0  0  0  0  0  0  0
  -34.4870   12.3790  -16.2130 O   0  0  0  0  0  0  0  0  0  0  0  0
  -34.1730   13.2860  -16.4670 H   0  0  0  0  0  0  0  0  0  0  0  0
  -32.2540   10.8830  -15.1440 C   0  0  0  0  0  0  0  0  0  0  0  0
  -32.1410   10.8280  -16.3990 O   0  0  0  0  0  0  0  0  0  0  0  0
  -31.1160   10.8780  -14.3440 O   0  0  0  0  0  0  0  0  0  0  0  0
  -30.2200   10.5850  -14.7170 H   0  0  0  0  0  0  0  0  0  0  0  0
  -35.7060    7.2120   -9.5380 C   0  0  2  0  0  3  0  0  0  0  0  0
  -34.3380    7.1260  -10.2640 C   0  0  2  0  0  3  0  0  0  0  0  0
  -34.2200    8.2120  -11.3570 C   0  0  2  0  0  3  0  0  0  0  0  0
  -35.6040    8.5350  -11.9410 C   0  0  1  0  0  3  0  0  0  0  0  0
  -36.5240    9.0420  -10.7870 C   0  0  2  0  0  3  0  0  0  0  0  0
  -36.1790    8.5480   -9.4950 O   0  0  0  0  0  0  0  0  0  0  0  0
  -35.5920    6.7100   -8.2320 O   0  0  0  0  0  0  0  0  0  0  0  0
  -35.2970    7.4610   -7.6540 H   0  0  0  0  0  0  0  0  0  0  0  0
  -34.1900    5.8490  -10.8330 O   0  0  0  0  0  0  0  0  0  0  0  0
  -34.0020    5.2230  -10.0850 H   0  0  0  0  0  0  0  0  0  0  0  0
  -33.3460    7.7820  -12.3710 O   0  0  0  0  0  0  0  0  0  0  0  0
  -33.1070    6.8400  -12.1690 H   0  0  0  0  0  0  0  0  0  0  0  0
  -37.9820    8.7910  -11.0650 C   0  0  0  0  0  0  0  0  0  0  0  0
  -38.8470    9.0970  -10.2000 O   0  0  0  0  0  0  0  0  0  0  0  0
  -38.3820    8.2000  -12.2590 O   0  0  0  0  0  0  0  0  0  0  0  0
  -39.3640    8.0950  -12.4840 H   0  0  0  0  0  0  0  0  0  0  0  0
  2  1  1  6  0  0  0
  3  2  1  0  0  0  0
  3  8  1  1  0  0  0
  4 10  1  1  0  0  0
  4  3  1  0  0  0  0
  5 12  1  6  0  0  0
  5  6  1  0  0  0  0
  5  4  1  0  0  0  0
  6 14  1  6  0  0  0
  6  7  1  0  0  0  0
  7  2  1  0  0  0  0
  8  9  1  0  0  0  0
 11 10  1  0  0  0  0
 13 12  1  0  0  0  0
 14 16  1  0  0  0  0
 15 14  2  0  0  0  0
 17 16  1  0  0  0  0
 18 23  1  0  0  0  0
 18 24  1  1  0  0  0
 19 26  1  6  0  0  0
 19 18  1  0  0  0  0
 20 28  1  6  0  0  0
 20 19  1  0  0  0  0
 21  1  1  6  0  0  0
 21 20  1  0  0  0  0
 21 22  1  0  0  0  0
 22 30  1  6  0  0  0
 22 23  1  0  0  0  0
 24 25  1  0  0  0  0
 26 27  1  0  0  0  0
 28 29  1  0  0  0  0
 30 31  2  0  0  0  0
 32 30  1  0  0  0  0
 33 32  1  0  0  0  0
M  END
>  <MODEL>
15

>  <REMARK>
 VINA RESULT:    -6.083      4.213      6.248
 INTER + INTRA:         -10.045
 INTER:                  -8.959
 INTRA:                  -1.086
 UNBOUND:                -1.116
  Name = BEM
  12 active torsions:
  status: ('A' for Active; 'I' for Inactive)
    1  A    between atoms: C_1  and  O_20
    2  A    between atoms: C_2  and  O_3
    3  A    between atoms: C_4  and  O_5
    4  A    between atoms: C_6  and  O_7
    5  A    between atoms: C_8  and  C_10
    6  A    between atoms: C_10  and  O_11
    7  A    between atoms: C_13  and  O_14
    8  A    between atoms: C_15  and  O_16
    9  A    between atoms: C_17  and  O_18
   10  A    between atoms: C_19  and  O_20
   11  A    between atoms: C_21  and  C_23
   12  A    between atoms: C_23  and  O_25
                            x       y       z     vdW  Elec       q    Type
                         _______ _______ _______ _____ _____    ______ ____

>  <TORSDO>
F 12

$$$$
