BEM
 OpenBabel09132600403D

 33 34  0  0  1  0  0  0  0  0999 V2000
  -35.8640   11.9160  -15.5990 O   0  0  0  0  0  0  0  0  0  0  0  0
  -35.7400   12.5680  -16.8560 C   0  0  2  0  0  3  0  0  0  0  0  0
  -37.0230   13.3600  -17.2000 C   0  0  2  0  0  3  0  0  0  0  0  0
  -38.1960   12.3950  -17.4450 C   0  0  2  0  0  3  0  0  0  0  0  0
  -37.7940   11.3150  -18.4610 C   0  0  1  0  0  3  0  0  0  0  0  0
  -36.4710   10.6560  -18.0160 C   0  0  2  0  0  3  0  0  0  0  0  0
  -35.4420   11.6220  -17.8720 O   0  0  0  0  0  0  0  0  0  0  0  0
  -36.8080   14.1410  -18.3490 O   0  0  0  0  0  0  0  0  0  0  0  0
  -37.6090   14.0300  -18.9250 H   0  0  0  0  0  0  0  0  0  0  0  0
  -39.3130   13.0990  -17.9220 O   0  0  0  0  0  0  0  0  0  0  0  0
  -40.1010   12.7570  -17.4250 H   0  0  0  0  0  0  0  0  0  0  0  0
  -38.8010   10.3380  -18.5410 O   0  0  0  0  0  0  0  0  0  0  0  0
  -38.3450    9.4600  -18.6210 H   0  0  0  0  0  0  0  0  0  0  0  0
  -36.0370    9.6420  -19.0330 C   0  0  0  0  0  0  0  0  0  0  0  0
  -34.9250    9.7650  -19.6170 O   0  0  0  0  0  0  0  0  0  0  0  0
  -36.8780    8.5830  -19.3580 O   0  0  0  0  0  0  0  0  0  0  0  0
  -37.2260    8.4680  -20.3030 H   0  0  0  0  0  0  0  0  0  0  0  0
  -32.6120   11.2550  -13.1540 C   0  0  2  0  0  3  0  0  0  0  0  0
  -32.7000   12.7020  -13.7060 C   0  0  2  0  0  3  0  0  0  0  0  0
  -34.0620   12.9540  -14.3890 C   0  0  2  0  0  3  0  0  0  0  0  0
  -34.6030   11.6520  -15.0010 C   0  0  1  0  0  3  0  0  0  0  0  0
  -34.7670   10.5980  -13.8620 C   0  0  2  0  0  3  0  0  0  0  0  0
  -33.8880   10.7810  -12.7550 O   0  0  0  0  0  0  0  0  0  0  0  0
  -31.7300   11.2070  -12.0630 O   0  0  0  0  0  0  0  0  0  0  0  0
  -31.3380   12.1140  -11.9620 H   0  0  0  0  0  0  0  0  0  0  0  0
  -31.6530   12.9170  -14.6200 O   0  0  0  0  0  0  0  0  0  0  0  0
  -31.0890   12.1000  -14.6070 H   0  0  0  0  0  0  0  0  0  0  0  0
  -33.9300   13.9450  -15.3780 O   0  0  0  0  0  0  0  0  0  0  0  0
  -34.5280   13.6880  -16.1270 H   0  0  0  0  0  0  0  0  0  0  0  0
  -34.6700    9.1850  -14.3720 C   0  0  0  0  0  0  0  0  0  0  0  0
  -34.5240    8.2330  -13.5570 O   0  0  0  0  0  0  0  0  0  0  0  0
  -34.7160    8.9220  -15.7370 O   0  0  0  0  0  0  0  0  0  0  0  0
  -34.9540    7.9990  -16.0810 H   0  0  0  0  0  0  0  0  0  0  0  0
  2  1  1  1  0  0  0
  3  8  1  6  0  0  0
  3  2  1  0  0  0  0
  4 10  1  6  0  0  0
  4  3  1  0  0  0  0
  5 12  1  1  0  0  0
  5  6  1  0  0  0  0
  5  4  1  0  0  0  0
  6 14  1  6  0  0  0
  6  7  1  0  0  0  0
  7  2  1  0  0  0  0
  9  8  1  0  0  0  0
 10 11  1  0  0  0  0
 13 12  1  0  0  0  0
 15 14  2  0  0  0  0
 16 14  1  0  0  0  0
 17 16  1  0  0  0  0
 18 23  1  0  0  0  0
 18 24  1  1  0  0  0
 19 26  1  6  0  0  0
 19 18  1  0  0  0  0
 20 28  1  6  0  0  0
 20 19  1  0  0  0  0
 21  1  1  1  0  0  0
 21 20  1  0  0  0  0
 21 22  1  0  0  0  0
 22 30  1  6  0  0  0
 22 23  1  0  0  0  0
 24 25  1  0  0  0  0
 26 27  1  0  0  0  0
 29 28  1  0  0  0  0
 30 31  2  0  0  0  0
 32 30  1  0  0  0  0
 33 32  1  0  0  0  0
M  END
>  <MODEL>
14

>  <REMARK>
 VINA RESULT:    -6.101      1.643      6.133
 INTER + INTRA:         -10.071
 INTER:                  -9.509
 INTRA:                  -0.562
 UNBOUND:                -1.116
  Name = BEM
  12 active torsions:
  status: ('A' for Active; 'I' for Inactive)
    1  A    between atoms: C_1  and  O_20
    2  A    between atoms: C_2  and  O_3
    3  A    between atoms: C_4  and  O_5
    4  A    between atoms: C_6  and  O_7
    5  A    between atoms: C_8  and  C_10
    6  A    between atoms: C_10  and  O_11
    7  A    between atoms: C_13  and  O_14
    8  A    between atoms: C_15  and  O_16
    9  A    between atoms: C_17  and  O_18
   10  A    between atoms: C_19  and  O_20
   11  A    between atoms: C_21  and  C_23
   12  A    between atoms: C_23  and  O_25
                            x       y       z     vdW  Elec       q    Type
                         _______ _______ _______ _____ _____    ______ ____

>  <TORSDO>
F 12

$$$$
