BEM
 OpenBabel09132600403D

 33 34  0  0  1  0  0  0  0  0999 V2000
  -35.3660   13.0770  -16.1390 O   0  0  0  0  0  0  0  0  0  0  0  0
  -36.3750   13.2710  -15.1570 C   0  0  2  0  0  3  0  0  0  0  0  0
  -37.2820   12.0240  -15.0380 C   0  0  2  0  0  3  0  0  0  0  0  0
  -38.1060   11.8410  -16.3240 C   0  0  2  0  0  3  0  0  0  0  0  0
  -38.8260   13.1500  -16.6870 C   0  0  1  0  0  3  0  0  0  0  0  0
  -37.8060   14.3080  -16.7090 C   0  0  2  0  0  3  0  0  0  0  0  0
  -37.1410   14.4270  -15.4620 O   0  0  0  0  0  0  0  0  0  0  0  0
  -38.1480   12.1670  -13.9400 O   0  0  0  0  0  0  0  0  0  0  0  0
  -39.0560   12.3240  -14.3090 H   0  0  0  0  0  0  0  0  0  0  0  0
  -39.0510   10.8160  -16.1540 O   0  0  0  0  0  0  0  0  0  0  0  0
  -39.5830   10.7750  -16.9920 H   0  0  0  0  0  0  0  0  0  0  0  0
  -39.4250   13.0280  -17.9530 O   0  0  0  0  0  0  0  0  0  0  0  0
  -38.7060   13.1570  -18.6260 H   0  0  0  0  0  0  0  0  0  0  0  0
  -38.5080   15.6020  -17.0020 C   0  0  0  0  0  0  0  0  0  0  0  0
  -39.0460   16.2570  -16.0680 O   0  0  0  0  0  0  0  0  0  0  0  0
  -38.5950   16.0610  -18.3120 O   0  0  0  0  0  0  0  0  0  0  0  0
  -37.7590   16.2740  -18.8450 H   0  0  0  0  0  0  0  0  0  0  0  0
  -32.0190   14.4230  -14.1430 C   0  0  2  0  0  3  0  0  0  0  0  0
  -32.8880   15.5560  -14.7490 C   0  0  2  0  0  3  0  0  0  0  0  0
  -34.2450   15.0110  -15.2460 C   0  0  2  0  0  3  0  0  0  0  0  0
  -34.0970   13.5530  -15.7110 C   0  0  1  0  0  3  0  0  0  0  0  0
  -33.5890   12.6970  -14.5090 C   0  0  2  0  0  3  0  0  0  0  0  0
  -32.8270   13.4220  -13.5470 O   0  0  0  0  0  0  0  0  0  0  0  0
  -31.1380   14.9490  -13.1860 O   0  0  0  0  0  0  0  0  0  0  0  0
  -31.6790   15.5000  -12.5610 H   0  0  0  0  0  0  0  0  0  0  0  0
  -32.1920   16.1610  -15.8110 O   0  0  0  0  0  0  0  0  0  0  0  0
  -32.5080   15.7270  -16.6450 H   0  0  0  0  0  0  0  0  0  0  0  0
  -34.7340   15.8130  -16.2920 O   0  0  0  0  0  0  0  0  0  0  0  0
  -35.7180   15.6790  -16.3250 H   0  0  0  0  0  0  0  0  0  0  0  0
  -32.8310   11.4760  -14.9560 C   0  0  0  0  0  0  0  0  0  0  0  0
  -32.6380   11.2720  -16.1850 O   0  0  0  0  0  0  0  0  0  0  0  0
  -32.3610   10.5560  -14.0240 O   0  0  0  0  0  0  0  0  0  0  0  0
  -31.4930   10.0580  -14.1770 H   0  0  0  0  0  0  0  0  0  0  0  0
  2  1  1  6  0  0  0
  2  3  1  0  0  0  0
  3  8  1  1  0  0  0
  4 10  1  1  0  0  0
  4  3  1  0  0  0  0
  5 12  1  6  0  0  0
  5  4  1  0  0  0  0
  6 14  1  1  0  0  0
  6  5  1  0  0  0  0
  6  7  1  0  0  0  0
  7  2  1  0  0  0  0
  9  8  1  0  0  0  0
 11 10  1  0  0  0  0
 13 12  1  0  0  0  0
 14 15  2  0  0  0  0
 16 14  1  0  0  0  0
 17 16  1  0  0  0  0
 18 23  1  0  0  0  0
 18 24  1  1  0  0  0
 19 26  1  6  0  0  0
 19 18  1  0  0  0  0
 20 28  1  6  0  0  0
 20 19  1  0  0  0  0
 21  1  1  1  0  0  0
 21 20  1  0  0  0  0
 21 22  1  0  0  0  0
 22 30  1  6  0  0  0
 22 23  1  0  0  0  0
 24 25  1  0  0  0  0
 27 26  1  0  0  0  0
 29 28  1  0  0  0  0
 30 32  1  0  0  0  0
 31 30  2  0  0  0  0
 33 32  1  0  0  0  0
M  END
>  <MODEL>
20

>  <REMARK>
 VINA RESULT:    -5.935      2.270      6.733
 INTER + INTRA:          -9.826
 INTER:                  -8.952
 INTRA:                  -0.875
 UNBOUND:                -1.116
  Name = BEM
  12 active torsions:
  status: ('A' for Active; 'I' for Inactive)
    1  A    between atoms: C_1  and  O_20
    2  A    between atoms: C_2  and  O_3
    3  A    between atoms: C_4  and  O_5
    4  A    between atoms: C_6  and  O_7
    5  A    between atoms: C_8  and  C_10
    6  A    between atoms: C_10  and  O_11
    7  A    between atoms: C_13  and  O_14
    8  A    between atoms: C_15  and  O_16
    9  A    between atoms: C_17  and  O_18
   10  A    between atoms: C_19  and  O_20
   11  A    between atoms: C_21  and  C_23
   12  A    between atoms: C_23  and  O_25
                            x       y       z     vdW  Elec       q    Type
                         _______ _______ _______ _____ _____    ______ ____

>  <TORSDO>
F 12

$$$$
