BEM
 OpenBabel09132600403D

 33 34  0  0  1  0  0  0  0  0999 V2000
  -33.8100   10.3850  -11.8840 O   0  0  0  0  0  0  0  0  0  0  0  0
  -34.7220   11.1070  -12.7010 C   0  0  2  0  0  3  0  0  0  0  0  0
  -35.0530   10.3210  -13.9920 C   0  0  2  0  0  3  0  0  0  0  0  0
  -33.8090   10.2260  -14.8920 C   0  0  2  0  0  3  0  0  0  0  0  0
  -33.1980   11.6200  -15.1060 C   0  0  1  0  0  3  0  0  0  0  0  0
  -32.9800   12.3010  -13.7380 C   0  0  2  0  0  3  0  0  0  0  0  0
  -34.1950   12.3880  -13.0110 O   0  0  0  0  0  0  0  0  0  0  0  0
  -36.0910   10.9630  -14.6890 O   0  0  0  0  0  0  0  0  0  0  0  0
  -35.8700   10.9000  -15.6540 H   0  0  0  0  0  0  0  0  0  0  0  0
  -34.1500    9.6650  -16.1330 O   0  0  0  0  0  0  0  0  0  0  0  0
  -33.6060    8.8400  -16.2340 H   0  0  0  0  0  0  0  0  0  0  0  0
  -31.9670   11.5020  -15.7730 O   0  0  0  0  0  0  0  0  0  0  0  0
  -32.0230   12.0740  -16.5830 H   0  0  0  0  0  0  0  0  0  0  0  0
  -32.4410   13.6870  -13.9380 C   0  0  0  0  0  0  0  0  0  0  0  0
  -33.1080   14.6880  -13.5570 O   0  0  0  0  0  0  0  0  0  0  0  0
  -31.2180   13.8700  -14.5760 O   0  0  0  0  0  0  0  0  0  0  0  0
  -31.0750   13.5480  -15.5260 H   0  0  0  0  0  0  0  0  0  0  0  0
  -35.1090    7.9350   -8.8340 C   0  0  2  0  0  3  0  0  0  0  0  0
  -34.2850    7.2000   -9.9230 C   0  0  2  0  0  3  0  0  0  0  0  0
  -33.6120    8.2060  -10.8840 C   0  0  2  0  0  3  0  0  0  0  0  0
  -34.4670    9.4760  -11.0130 C   0  0  1  0  0  3  0  0  0  0  0  0
  -34.6240   10.1160   -9.5990 C   0  0  2  0  0  3  0  0  0  0  0  0
  -34.5340    9.1920   -8.5180 O   0  0  0  0  0  0  0  0  0  0  0  0
  -35.1880    7.1480   -7.6750 O   0  0  0  0  0  0  0  0  0  0  0  0
  -34.9130    7.7210   -6.9120 H   0  0  0  0  0  0  0  0  0  0  0  0
  -35.1280    6.3340  -10.6420 O   0  0  0  0  0  0  0  0  0  0  0  0
  -36.0560    6.6580  -10.5050 H   0  0  0  0  0  0  0  0  0  0  0  0
  -33.4170    7.6130  -12.1440 O   0  0  0  0  0  0  0  0  0  0  0  0
  -33.3760    6.6320  -12.0000 H   0  0  0  0  0  0  0  0  0  0  0  0
  -35.8810   10.9350   -9.4770 C   0  0  0  0  0  0  0  0  0  0  0  0
  -36.9620   10.5020   -9.9620 O   0  0  0  0  0  0  0  0  0  0  0  0
  -35.8570   12.1780   -8.8530 O   0  0  0  0  0  0  0  0  0  0  0  0
  -35.6870   13.0230   -9.3840 H   0  0  0  0  0  0  0  0  0  0  0  0
  2  1  1  6  0  0  0
  3  8  1  6  0  0  0
  3  2  1  0  0  0  0
  4 10  1  6  0  0  0
  4  3  1  0  0  0  0
  5 12  1  1  0  0  0
  5  4  1  0  0  0  0
  5  6  1  0  0  0  0
  6 14  1  6  0  0  0
  6  7  1  0  0  0  0
  7  2  1  0  0  0  0
  9  8  1  0  0  0  0
 11 10  1  0  0  0  0
 13 12  1  0  0  0  0
 14 15  2  0  0  0  0
 16 14  1  0  0  0  0
 17 16  1  0  0  0  0
 18 23  1  0  0  0  0
 18 24  1  1  0  0  0
 19 26  1  6  0  0  0
 19 18  1  0  0  0  0
 20 28  1  6  0  0  0
 20 19  1  0  0  0  0
 21  1  1  6  0  0  0
 21 20  1  0  0  0  0
 21 22  1  0  0  0  0
 22 30  1  6  0  0  0
 22 23  1  0  0  0  0
 24 25  1  0  0  0  0
 26 27  1  0  0  0  0
 28 29  1  0  0  0  0
 30 32  1  0  0  0  0
 31 30  2  0  0  0  0
 33 32  1  0  0  0  0
M  END
>  <MODEL>
13

>  <REMARK>
 VINA RESULT:    -6.279      3.945      6.792
 INTER + INTRA:         -10.332
 INTER:                  -9.393
 INTRA:                  -0.939
 UNBOUND:                -1.116
  Name = BEM
  12 active torsions:
  status: ('A' for Active; 'I' for Inactive)
    1  A    between atoms: C_1  and  O_20
    2  A    between atoms: C_2  and  O_3
    3  A    between atoms: C_4  and  O_5
    4  A    between atoms: C_6  and  O_7
    5  A    between atoms: C_8  and  C_10
    6  A    between atoms: C_10  and  O_11
    7  A    between atoms: C_13  and  O_14
    8  A    between atoms: C_15  and  O_16
    9  A    between atoms: C_17  and  O_18
   10  A    between atoms: C_19  and  O_20
   11  A    between atoms: C_21  and  C_23
   12  A    between atoms: C_23  and  O_25
                            x       y       z     vdW  Elec       q    Type
                         _______ _______ _______ _____ _____    ______ ____

>  <TORSDO>
F 12

$$$$
