BEM
 OpenBabel09132600403D

 33 34  0  0  1  0  0  0  0  0999 V2000
  -35.0070    9.9600  -11.0080 O   0  0  0  0  0  0  0  0  0  0  0  0
  -35.8810    9.0470  -11.6580 C   0  0  2  0  0  3  0  0  0  0  0  0
  -37.2200    8.9190  -10.8940 C   0  0  2  0  0  3  0  0  0  0  0  0
  -36.9930    8.2420   -9.5310 C   0  0  2  0  0  3  0  0  0  0  0  0
  -36.2060    6.9340   -9.7100 C   0  0  1  0  0  3  0  0  0  0  0  0
  -34.9330    7.2090  -10.5370 C   0  0  2  0  0  3  0  0  0  0  0  0
  -35.2540    7.7800  -11.7960 O   0  0  0  0  0  0  0  0  0  0  0  0
  -38.1300    8.1610  -11.6500 O   0  0  0  0  0  0  0  0  0  0  0  0
  -38.6240    8.7980  -12.2290 H   0  0  0  0  0  0  0  0  0  0  0  0
  -38.2240    7.9710   -8.9120 O   0  0  0  0  0  0  0  0  0  0  0  0
  -38.9270    8.1210   -9.5970 H   0  0  0  0  0  0  0  0  0  0  0  0
  -35.8470    6.4200   -8.4520 O   0  0  0  0  0  0  0  0  0  0  0  0
  -34.9730    5.9610   -8.5670 H   0  0  0  0  0  0  0  0  0  0  0  0
  -34.1880    5.9270  -10.7710 C   0  0  0  0  0  0  0  0  0  0  0  0
  -33.0640    5.9410  -11.3430 O   0  0  0  0  0  0  0  0  0  0  0  0
  -34.7560    4.7160  -10.3860 O   0  0  0  0  0  0  0  0  0  0  0  0
  -34.3110    3.8360  -10.6190 H   0  0  0  0  0  0  0  0  0  0  0  0
  -33.5910   12.1440  -14.2040 C   0  0  2  0  0  3  0  0  0  0  0  0
  -32.8730   10.7840  -14.0050 C   0  0  2  0  0  3  0  0  0  0  0  0
  -33.6160    9.9090  -12.9710 C   0  0  2  0  0  3  0  0  0  0  0  0
  -34.3160   10.7940  -11.9270 C   0  0  1  0  0  3  0  0  0  0  0  0
  -35.3300   11.7230  -12.6630 C   0  0  2  0  0  3  0  0  0  0  0  0
  -34.9910   12.0160  -14.0170 O   0  0  0  0  0  0  0  0  0  0  0  0
  -33.3330   12.6430  -15.4910 O   0  0  0  0  0  0  0  0  0  0  0  0
  -32.3660   12.8650  -15.5300 H   0  0  0  0  0  0  0  0  0  0  0  0
  -31.5500   11.0110  -13.5850 O   0  0  0  0  0  0  0  0  0  0  0  0
  -31.5430   10.9140  -12.5970 H   0  0  0  0  0  0  0  0  0  0  0  0
  -32.7150    9.0300  -12.3460 O   0  0  0  0  0  0  0  0  0  0  0  0
  -32.9210    8.1180  -12.6790 H   0  0  0  0  0  0  0  0  0  0  0  0
  -35.5910   12.9990  -11.9080 C   0  0  0  0  0  0  0  0  0  0  0  0
  -35.8090   14.0690  -12.5390 O   0  0  0  0  0  0  0  0  0  0  0  0
  -35.5690   13.0130  -10.5170 O   0  0  0  0  0  0  0  0  0  0  0  0
  -35.9020   12.2190   -9.9840 H   0  0  0  0  0  0  0  0  0  0  0  0
  2  1  1  1  0  0  0
  2  3  1  0  0  0  0
  3  8  1  6  0  0  0
  3  4  1  0  0  0  0
  4 10  1  6  0  0  0
  5  4  1  0  0  0  0
  5 12  1  1  0  0  0
  6 14  1  6  0  0  0
  6  5  1  0  0  0  0
  7  2  1  0  0  0  0
  7  6  1  0  0  0  0
  9  8  1  0  0  0  0
 11 10  1  0  0  0  0
 13 12  1  0  0  0  0
 14 16  1  0  0  0  0
 15 14  2  0  0  0  0
 17 16  1  0  0  0  0
 18 24  1  6  0  0  0
 18 23  1  0  0  0  0
 18 19  1  0  0  0  0
 19 26  1  1  0  0  0
 19 20  1  0  0  0  0
 20 28  1  1  0  0  0
 20 21  1  0  0  0  0
 21  1  1  1  0  0  0
 22 21  1  0  0  0  0
 22 30  1  1  0  0  0
 23 22  1  0  0  0  0
 25 24  1  0  0  0  0
 26 27  1  0  0  0  0
 29 28  1  0  0  0  0
 30 32  1  0  0  0  0
 31 30  2  0  0  0  0
 32 33  1  0  0  0  0
M  END
>  <MODEL>
16

>  <REMARK>
 VINA RESULT:    -6.073      4.629      7.023
 INTER + INTRA:         -10.030
 INTER:                  -8.943
 INTRA:                  -1.087
 UNBOUND:                -1.116
  Name = BEM
  12 active torsions:
  status: ('A' for Active; 'I' for Inactive)
    1  A    between atoms: C_1  and  O_20
    2  A    between atoms: C_2  and  O_3
    3  A    between atoms: C_4  and  O_5
    4  A    between atoms: C_6  and  O_7
    5  A    between atoms: C_8  and  C_10
    6  A    between atoms: C_10  and  O_11
    7  A    between atoms: C_13  and  O_14
    8  A    between atoms: C_15  and  O_16
    9  A    between atoms: C_17  and  O_18
   10  A    between atoms: C_19  and  O_20
   11  A    between atoms: C_21  and  C_23
   12  A    between atoms: C_23  and  O_25
                            x       y       z     vdW  Elec       q    Type
                         _______ _______ _______ _____ _____    ______ ____

>  <TORSDO>
F 12

$$$$
