BEM
 OpenBabel09132600403D

 33 34  0  0  1  0  0  0  0  0999 V2000
  -35.2830   12.3470  -15.7960 O   0  0  0  0  0  0  0  0  0  0  0  0
  -35.8570   12.7220  -17.0410 C   0  0  2  0  0  3  0  0  0  0  0  0
  -37.4020   12.6820  -16.9760 C   0  0  2  0  0  3  0  0  0  0  0  0
  -37.8900   11.2320  -16.8130 C   0  0  2  0  0  3  0  0  0  0  0  0
  -37.2500   10.3310  -17.8800 C   0  0  1  0  0  3  0  0  0  0  0  0
  -35.7190   10.5230  -17.8650 C   0  0  2  0  0  3  0  0  0  0  0  0
  -35.3720   11.8820  -18.0780 O   0  0  0  0  0  0  0  0  0  0  0  0
  -37.9430   13.2320  -18.1500 O   0  0  0  0  0  0  0  0  0  0  0  0
  -37.3300   13.9570  -18.4380 H   0  0  0  0  0  0  0  0  0  0  0  0
  -39.2890   11.1750  -16.9250 O   0  0  0  0  0  0  0  0  0  0  0  0
  -39.6430   12.0060  -16.5100 H   0  0  0  0  0  0  0  0  0  0  0  0
  -37.5570    8.9860  -17.6130 O   0  0  0  0  0  0  0  0  0  0  0  0
  -37.8250    8.5740  -18.4760 H   0  0  0  0  0  0  0  0  0  0  0  0
  -35.0890    9.6930  -18.9450 C   0  0  0  0  0  0  0  0  0  0  0  0
  -33.8930    9.3070  -18.8320 O   0  0  0  0  0  0  0  0  0  0  0  0
  -35.8140    9.3800  -20.0900 O   0  0  0  0  0  0  0  0  0  0  0  0
  -36.8010    9.6010  -20.1560 H   0  0  0  0  0  0  0  0  0  0  0  0
  -32.0130   14.2660  -14.1800 C   0  0  2  0  0  3  0  0  0  0  0  0
  -33.2010   15.2100  -14.5000 C   0  0  2  0  0  3  0  0  0  0  0  0
  -34.4720   14.4050  -14.8490 C   0  0  2  0  0  3  0  0  0  0  0  0
  -34.0940   13.0690  -15.5100 C   0  0  1  0  0  3  0  0  0  0  0  0
  -33.2070   12.2570  -14.5160 C   0  0  2  0  0  3  0  0  0  0  0  0
  -32.4650   13.0550  -13.5980 O   0  0  0  0  0  0  0  0  0  0  0  0
  -31.1140   14.9000  -13.3080 O   0  0  0  0  0  0  0  0  0  0  0  0
  -31.6430   15.2520  -12.5450 H   0  0  0  0  0  0  0  0  0  0  0  0
  -32.8530   16.0530  -15.5700 O   0  0  0  0  0  0  0  0  0  0  0  0
  -33.6600   16.1390  -16.1410 H   0  0  0  0  0  0  0  0  0  0  0  0
  -35.3020   15.1570  -15.7000 O   0  0  0  0  0  0  0  0  0  0  0  0
  -35.8840   15.7140  -15.1190 H   0  0  0  0  0  0  0  0  0  0  0  0
  -32.2910   11.2930  -15.2220 C   0  0  0  0  0  0  0  0  0  0  0  0
  -32.5260   10.9660  -16.4180 O   0  0  0  0  0  0  0  0  0  0  0  0
  -31.2010   10.7400  -14.5590 O   0  0  0  0  0  0  0  0  0  0  0  0
  -31.1560    9.7460  -14.3710 H   0  0  0  0  0  0  0  0  0  0  0  0
  2  3  1  0  0  0  0
  2  1  1  1  0  0  0
  3  8  1  6  0  0  0
  3  4  1  0  0  0  0
  4 10  1  6  0  0  0
  5  6  1  0  0  0  0
  5 12  1  1  0  0  0
  5  4  1  0  0  0  0
  6 14  1  6  0  0  0
  7  6  1  0  0  0  0
  7  2  1  0  0  0  0
  9  8  1  0  0  0  0
 10 11  1  0  0  0  0
 13 12  1  0  0  0  0
 14 15  2  0  0  0  0
 16 14  1  0  0  0  0
 17 16  1  0  0  0  0
 18 23  1  0  0  0  0
 18 24  1  1  0  0  0
 19 26  1  6  0  0  0
 19 18  1  0  0  0  0
 20 28  1  6  0  0  0
 20 19  1  0  0  0  0
 21  1  1  1  0  0  0
 21 20  1  0  0  0  0
 21 22  1  0  0  0  0
 22 30  1  6  0  0  0
 22 23  1  0  0  0  0
 24 25  1  0  0  0  0
 27 26  1  0  0  0  0
 28 29  1  0  0  0  0
 30 32  1  0  0  0  0
 31 30  2  0  0  0  0
 32 33  1  0  0  0  0
M  END
>  <MODEL>
4

>  <REMARK>
 VINA RESULT:    -6.961      1.231      6.365
 INTER + INTRA:         -11.333
 INTER:                 -10.738
 INTRA:                  -0.595
 UNBOUND:                -1.116
  Name = BEM
  12 active torsions:
  status: ('A' for Active; 'I' for Inactive)
    1  A    between atoms: C_1  and  O_20
    2  A    between atoms: C_2  and  O_3
    3  A    between atoms: C_4  and  O_5
    4  A    between atoms: C_6  and  O_7
    5  A    between atoms: C_8  and  C_10
    6  A    between atoms: C_10  and  O_11
    7  A    between atoms: C_13  and  O_14
    8  A    between atoms: C_15  and  O_16
    9  A    between atoms: C_17  and  O_18
   10  A    between atoms: C_19  and  O_20
   11  A    between atoms: C_21  and  C_23
   12  A    between atoms: C_23  and  O_25
                            x       y       z     vdW  Elec       q    Type
                         _______ _______ _______ _____ _____    ______ ____

>  <TORSDO>
F 12

$$$$
