BEM
 OpenBabel09132600403D

 33 34  0  0  1  0  0  0  0  0999 V2000
  -36.3120   11.6960  -16.0450 O   0  0  0  0  0  0  0  0  0  0  0  0
  -36.8260   12.1800  -17.2780 C   0  0  2  0  0  3  0  0  0  0  0  0
  -38.3400   12.4760  -17.1720 C   0  0  2  0  0  3  0  0  0  0  0  0
  -39.1260   11.1670  -16.9790 C   0  0  2  0  0  3  0  0  0  0  0  0
  -38.7260   10.1430  -18.0530 C   0  0  1  0  0  3  0  0  0  0  0  0
  -37.1900    9.9990  -18.0800 C   0  0  2  0  0  3  0  0  0  0  0  0
  -36.5640   11.2500  -18.3180 O   0  0  0  0  0  0  0  0  0  0  0  0
  -38.7830   13.1240  -18.3380 O   0  0  0  0  0  0  0  0  0  0  0  0
  -37.9980   13.2010  -18.9390 H   0  0  0  0  0  0  0  0  0  0  0  0
  -40.5060   11.4140  -17.0540 O   0  0  0  0  0  0  0  0  0  0  0  0
  -40.8150   11.5970  -16.1280 H   0  0  0  0  0  0  0  0  0  0  0  0
  -39.3090    8.8970  -17.7620 O   0  0  0  0  0  0  0  0  0  0  0  0
  -39.6210    8.5170  -18.6250 H   0  0  0  0  0  0  0  0  0  0  0  0
  -36.7850    9.0470  -19.1670 C   0  0  0  0  0  0  0  0  0  0  0  0
  -37.3270    7.9120  -19.2510 O   0  0  0  0  0  0  0  0  0  0  0  0
  -35.7830    9.4060  -20.0630 O   0  0  0  0  0  0  0  0  0  0  0  0
  -35.6180    8.8620  -20.9020 H   0  0  0  0  0  0  0  0  0  0  0  0
  -32.9270   13.1890  -14.2260 C   0  0  2  0  0  3  0  0  0  0  0  0
  -34.2210   13.9740  -13.8880 C   0  0  2  0  0  3  0  0  0  0  0  0
  -35.4750   13.2180  -14.3790 C   0  0  2  0  0  3  0  0  0  0  0  0
  -35.1450   12.3950  -15.6340 C   0  0  1  0  0  3  0  0  0  0  0  0
  -34.0160   11.3780  -15.2800 C   0  0  2  0  0  3  0  0  0  0  0  0
  -33.1610   11.7900  -14.2170 O   0  0  0  0  0  0  0  0  0  0  0  0
  -31.9160   13.5030  -13.3050 O   0  0  0  0  0  0  0  0  0  0  0  0
  -32.3630   13.7950  -12.4670 H   0  0  0  0  0  0  0  0  0  0  0  0
  -34.1620   15.2490  -14.4790 O   0  0  0  0  0  0  0  0  0  0  0  0
  -35.0480   15.6720  -14.3360 H   0  0  0  0  0  0  0  0  0  0  0  0
  -36.5140   14.1270  -14.6460 O   0  0  0  0  0  0  0  0  0  0  0  0
  -37.3560   13.7060  -14.3310 H   0  0  0  0  0  0  0  0  0  0  0  0
  -33.1980   10.9880  -16.4820 C   0  0  0  0  0  0  0  0  0  0  0  0
  -32.0610   10.4650  -16.3240 O   0  0  0  0  0  0  0  0  0  0  0  0
  -33.6750   11.2230  -17.7680 O   0  0  0  0  0  0  0  0  0  0  0  0
  -34.0980   12.1100  -18.0110 H   0  0  0  0  0  0  0  0  0  0  0  0
  2  3  1  0  0  0  0
  2  1  1  1  0  0  0
  3  8  1  6  0  0  0
  3  4  1  0  0  0  0
  4 10  1  6  0  0  0
  5 12  1  1  0  0  0
  5  4  1  0  0  0  0
  6 14  1  6  0  0  0
  6  5  1  0  0  0  0
  7  6  1  0  0  0  0
  7  2  1  0  0  0  0
  9  8  1  0  0  0  0
 10 11  1  0  0  0  0
 13 12  1  0  0  0  0
 15 14  2  0  0  0  0
 16 14  1  0  0  0  0
 17 16  1  0  0  0  0
 18 23  1  0  0  0  0
 18 19  1  0  0  0  0
 18 24  1  1  0  0  0
 19 26  1  6  0  0  0
 20 28  1  6  0  0  0
 20 19  1  0  0  0  0
 21  1  1  1  0  0  0
 21 22  1  0  0  0  0
 21 20  1  0  0  0  0
 22 30  1  6  0  0  0
 22 23  1  0  0  0  0
 24 25  1  0  0  0  0
 26 27  1  0  0  0  0
 28 29  1  0  0  0  0
 30 31  2  0  0  0  0
 32 30  1  0  0  0  0
 33 32  1  0  0  0  0
M  END
>  <MODEL>
8

>  <REMARK>
 VINA RESULT:    -6.562      1.406      6.441
 INTER + INTRA:         -10.748
 INTER:                  -9.449
 INTRA:                  -1.299
 UNBOUND:                -1.116
  Name = BEM
  12 active torsions:
  status: ('A' for Active; 'I' for Inactive)
    1  A    between atoms: C_1  and  O_20
    2  A    between atoms: C_2  and  O_3
    3  A    between atoms: C_4  and  O_5
    4  A    between atoms: C_6  and  O_7
    5  A    between atoms: C_8  and  C_10
    6  A    between atoms: C_10  and  O_11
    7  A    between atoms: C_13  and  O_14
    8  A    between atoms: C_15  and  O_16
    9  A    between atoms: C_17  and  O_18
   10  A    between atoms: C_19  and  O_20
   11  A    between atoms: C_21  and  C_23
   12  A    between atoms: C_23  and  O_25
                            x       y       z     vdW  Elec       q    Type
                         _______ _______ _______ _____ _____    ______ ____

>  <TORSDO>
F 12

$$$$
