BEM
 OpenBabel09132600403D

 33 34  0  0  1  0  0  0  0  0999 V2000
  -35.5620   11.2030  -15.8720 O   0  0  0  0  0  0  0  0  0  0  0  0
  -34.2460   11.6560  -16.1600 C   0  0  2  0  0  3  0  0  0  0  0  0
  -33.2530   11.2170  -15.0580 C   0  0  2  0  0  3  0  0  0  0  0  0
  -33.5690   11.9400  -13.7370 C   0  0  2  0  0  3  0  0  0  0  0  0
  -33.6680   13.4560  -13.9710 C   0  0  1  0  0  3  0  0  0  0  0  0
  -34.6450   13.7350  -15.1320 C   0  0  2  0  0  3  0  0  0  0  0  0
  -34.2360   13.0670  -16.3160 O   0  0  0  0  0  0  0  0  0  0  0  0
  -31.9380   11.5120  -15.4550 O   0  0  0  0  0  0  0  0  0  0  0  0
  -31.7850   11.0410  -16.3150 H   0  0  0  0  0  0  0  0  0  0  0  0
  -32.5690   11.6740  -12.7870 O   0  0  0  0  0  0  0  0  0  0  0  0
  -32.3480   12.5410  -12.3550 H   0  0  0  0  0  0  0  0  0  0  0  0
  -34.1330   14.0870  -12.8050 O   0  0  0  0  0  0  0  0  0  0  0  0
  -34.2870   13.3730  -12.1320 H   0  0  0  0  0  0  0  0  0  0  0  0
  -34.7020   15.2080  -15.4100 C   0  0  0  0  0  0  0  0  0  0  0  0
  -35.6090   15.6800  -16.1490 O   0  0  0  0  0  0  0  0  0  0  0  0
  -33.7310   16.0510  -14.8780 O   0  0  0  0  0  0  0  0  0  0  0  0
  -32.7690   15.9960  -15.1900 H   0  0  0  0  0  0  0  0  0  0  0  0
  -38.2890   10.0950  -18.7570 C   0  0  2  0  0  3  0  0  0  0  0  0
  -37.3180    8.9600  -18.3410 C   0  0  2  0  0  3  0  0  0  0  0  0
  -36.5080    9.3540  -17.0870 C   0  0  2  0  0  3  0  0  0  0  0  0
  -36.2890   10.8750  -17.0470 C   0  0  1  0  0  3  0  0  0  0  0  0
  -37.6820   11.5770  -17.0210 C   0  0  2  0  0  3  0  0  0  0  0  0
  -38.7330   10.8290  -17.6280 O   0  0  0  0  0  0  0  0  0  0  0  0
  -39.3950    9.5600  -19.4360 O   0  0  0  0  0  0  0  0  0  0  0  0
  -40.0480    9.2670  -18.7470 H   0  0  0  0  0  0  0  0  0  0  0  0
  -36.4490    8.6740  -19.4090 O   0  0  0  0  0  0  0  0  0  0  0  0
  -36.8770    9.0320  -20.2300 H   0  0  0  0  0  0  0  0  0  0  0  0
  -35.2740    8.6790  -17.0770 O   0  0  0  0  0  0  0  0  0  0  0  0
  -34.6800    9.1700  -16.4510 H   0  0  0  0  0  0  0  0  0  0  0  0
  -37.6350   12.9650  -17.6000 C   0  0  0  0  0  0  0  0  0  0  0  0
  -38.6920   13.6480  -17.6810 O   0  0  0  0  0  0  0  0  0  0  0  0
  -36.4370   13.4940  -18.0710 O   0  0  0  0  0  0  0  0  0  0  0  0
  -35.8720   12.9860  -18.7410 H   0  0  0  0  0  0  0  0  0  0  0  0
  2  1  1  1  0  0  0
  2  3  1  0  0  0  0
  3  8  1  6  0  0  0
  3  4  1  0  0  0  0
  4 10  1  1  0  0  0
  5  4  1  0  0  0  0
  5 12  1  1  0  0  0
  6 14  1  6  0  0  0
  6  5  1  0  0  0  0
  7  2  1  0  0  0  0
  7  6  1  0  0  0  0
  9  8  1  0  0  0  0
 10 11  1  0  0  0  0
 12 13  1  0  0  0  0
 14 16  1  0  0  0  0
 15 14  2  0  0  0  0
 17 16  1  0  0  0  0
 18 24  1  1  0  0  0
 18 19  1  0  0  0  0
 18 23  1  0  0  0  0
 19 26  1  6  0  0  0
 19 20  1  0  0  0  0
 20 28  1  6  0  0  0
 20 21  1  0  0  0  0
 21 22  1  0  0  0  0
 21  1  1  1  0  0  0
 22 30  1  6  0  0  0
 23 22  1  0  0  0  0
 24 25  1  0  0  0  0
 27 26  1  0  0  0  0
 28 29  1  0  0  0  0
 31 30  2  0  0  0  0
 32 30  1  0  0  0  0
 33 32  1  0  0  0  0
M  END
>  <MODEL>
3

>  <REMARK>
 VINA RESULT:    -7.028      1.355      2.943
 INTER + INTRA:         -11.431
 INTER:                  -9.778
 INTRA:                  -1.653
 UNBOUND:                -1.116
  Name = BEM
  12 active torsions:
  status: ('A' for Active; 'I' for Inactive)
    1  A    between atoms: C_1  and  O_20
    2  A    between atoms: C_2  and  O_3
    3  A    between atoms: C_4  and  O_5
    4  A    between atoms: C_6  and  O_7
    5  A    between atoms: C_8  and  C_10
    6  A    between atoms: C_10  and  O_11
    7  A    between atoms: C_13  and  O_14
    8  A    between atoms: C_15  and  O_16
    9  A    between atoms: C_17  and  O_18
   10  A    between atoms: C_19  and  O_20
   11  A    between atoms: C_21  and  C_23
   12  A    between atoms: C_23  and  O_25
                            x       y       z     vdW  Elec       q    Type
                         _______ _______ _______ _____ _____    ______ ____

>  <TORSDO>
F 12

$$$$
