BEM
 OpenBabel09132600403D

 33 34  0  0  1  0  0  0  0  0999 V2000
  -35.2640   11.5500  -12.7840 O   0  0  0  0  0  0  0  0  0  0  0  0
  -34.3600   12.5190  -13.3000 C   0  0  2  0  0  3  0  0  0  0  0  0
  -35.1180   13.7540  -13.8390 C   0  0  2  0  0  3  0  0  0  0  0  0
  -35.9370   13.3750  -15.0850 C   0  0  2  0  0  3  0  0  0  0  0  0
  -35.0490   12.6460  -16.1060 C   0  0  1  0  0  3  0  0  0  0  0  0
  -34.3170   11.4800  -15.4100 C   0  0  2  0  0  3  0  0  0  0  0  0
  -33.5470   11.9420  -14.3110 O   0  0  0  0  0  0  0  0  0  0  0  0
  -34.2020   14.7690  -14.1690 O   0  0  0  0  0  0  0  0  0  0  0  0
  -33.9450   15.2110  -13.3190 H   0  0  0  0  0  0  0  0  0  0  0  0
  -36.4860   14.5250  -15.6740 O   0  0  0  0  0  0  0  0  0  0  0  0
  -36.7200   15.1430  -14.9320 H   0  0  0  0  0  0  0  0  0  0  0  0
  -35.8410   12.1450  -17.1530 O   0  0  0  0  0  0  0  0  0  0  0  0
  -36.0410   11.1970  -16.9350 H   0  0  0  0  0  0  0  0  0  0  0  0
  -33.3990   10.7990  -16.3830 C   0  0  0  0  0  0  0  0  0  0  0  0
  -33.8520    9.9420  -17.1890 O   0  0  0  0  0  0  0  0  0  0  0  0
  -32.0380   11.0900  -16.3710 O   0  0  0  0  0  0  0  0  0  0  0  0
  -31.6820   11.8840  -15.8520 H   0  0  0  0  0  0  0  0  0  0  0  0
  -34.5750    9.3590   -9.3620 C   0  0  2  0  0  3  0  0  0  0  0  0
  -35.1960   10.7550   -9.1000 C   0  0  2  0  0  3  0  0  0  0  0  0
  -35.6690   11.4100  -10.4170 C   0  0  2  0  0  3  0  0  0  0  0  0
  -34.7880   10.9490  -11.5890 C   0  0  1  0  0  3  0  0  0  0  0  0
  -34.8850    9.3960  -11.7030 C   0  0  2  0  0  3  0  0  0  0  0  0
  -35.1830    8.7300  -10.4780 O   0  0  0  0  0  0  0  0  0  0  0  0
  -34.7190    8.5460   -8.2270 O   0  0  0  0  0  0  0  0  0  0  0  0
  -35.6900    8.4940   -8.0250 H   0  0  0  0  0  0  0  0  0  0  0  0
  -34.2480   11.5770   -8.4650 O   0  0  0  0  0  0  0  0  0  0  0  0
  -33.4100   11.0480   -8.3980 H   0  0  0  0  0  0  0  0  0  0  0  0
  -35.6380   12.8100  -10.2990 O   0  0  0  0  0  0  0  0  0  0  0  0
  -35.1170   13.0210   -9.4800 H   0  0  0  0  0  0  0  0  0  0  0  0
  -33.6600    8.7910  -12.3360 C   0  0  0  0  0  0  0  0  0  0  0  0
  -33.4890    7.5420  -12.3030 O   0  0  0  0  0  0  0  0  0  0  0  0
  -32.7020    9.6010  -12.9370 O   0  0  0  0  0  0  0  0  0  0  0  0
  -32.6100   10.5760  -12.6790 H   0  0  0  0  0  0  0  0  0  0  0  0
  2  1  1  6  0  0  0
  3  8  1  6  0  0  0
  3  2  1  0  0  0  0
  4 10  1  6  0  0  0
  4  3  1  0  0  0  0
  5 12  1  6  0  0  0
  5  6  1  0  0  0  0
  5  4  1  0  0  0  0
  6 14  1  6  0  0  0
  6  7  1  0  0  0  0
  7  2  1  0  0  0  0
  8  9  1  0  0  0  0
 10 11  1  0  0  0  0
 12 13  1  0  0  0  0
 14 16  1  0  0  0  0
 15 14  2  0  0  0  0
 16 17  1  0  0  0  0
 18 19  1  0  0  0  0
 18 24  1  1  0  0  0
 19 26  1  6  0  0  0
 20 28  1  1  0  0  0
 20 19  1  0  0  0  0
 21  1  1  6  0  0  0
 21 20  1  0  0  0  0
 22 30  1  1  0  0  0
 22 21  1  0  0  0  0
 22 23  1  0  0  0  0
 23 18  1  0  0  0  0
 24 25  1  0  0  0  0
 26 27  1  0  0  0  0
 28 29  1  0  0  0  0
 30 31  2  0  0  0  0
 32 33  1  0  0  0  0
 32 30  1  0  0  0  0
M  END
>  <MODEL>
10

>  <REMARK>
 VINA RESULT:    -6.447      3.215      6.528
 INTER + INTRA:         -10.579
 INTER:                  -9.171
 INTRA:                  -1.408
 UNBOUND:                -1.116
  Name = BEM
  12 active torsions:
  status: ('A' for Active; 'I' for Inactive)
    1  A    between atoms: C_1  and  O_20
    2  A    between atoms: C_2  and  O_3
    3  A    between atoms: C_4  and  O_5
    4  A    between atoms: C_6  and  O_7
    5  A    between atoms: C_8  and  C_10
    6  A    between atoms: C_10  and  O_11
    7  A    between atoms: C_13  and  O_14
    8  A    between atoms: C_15  and  O_16
    9  A    between atoms: C_17  and  O_18
   10  A    between atoms: C_19  and  O_20
   11  A    between atoms: C_21  and  C_23
   12  A    between atoms: C_23  and  O_25
                            x       y       z     vdW  Elec       q    Type
                         _______ _______ _______ _____ _____    ______ ____

>  <TORSDO>
F 12

$$$$
