BEM
 OpenBabel09132600403D

 33 34  0  0  1  0  0  0  0  0999 V2000
  -36.0070   11.1600  -15.5650 O   0  0  0  0  0  0  0  0  0  0  0  0
  -36.2300   11.8450  -16.7910 C   0  0  2  0  0  3  0  0  0  0  0  0
  -37.6460   12.4660  -16.8310 C   0  0  2  0  0  3  0  0  0  0  0  0
  -38.7130   11.3590  -16.8750 C   0  0  2  0  0  3  0  0  0  0  0  0
  -38.3980   10.3600  -18.0000 C   0  0  1  0  0  3  0  0  0  0  0  0
  -36.9390    9.8740  -17.8620 C   0  0  2  0  0  3  0  0  0  0  0  0
  -36.0330   10.9650  -17.8880 O   0  0  0  0  0  0  0  0  0  0  0  0
  -37.7740   13.2890  -17.9630 O   0  0  0  0  0  0  0  0  0  0  0  0
  -37.9420   12.6900  -18.7360 H   0  0  0  0  0  0  0  0  0  0  0  0
  -39.9840   11.9170  -17.0840 O   0  0  0  0  0  0  0  0  0  0  0  0
  -39.8400   12.8510  -17.3920 H   0  0  0  0  0  0  0  0  0  0  0  0
  -39.2680    9.2600  -17.9160 O   0  0  0  0  0  0  0  0  0  0  0  0
  -38.9270    8.6760  -17.1890 H   0  0  0  0  0  0  0  0  0  0  0  0
  -36.6010    8.9450  -18.9910 C   0  0  0  0  0  0  0  0  0  0  0  0
  -37.1990    7.8410  -19.1050 O   0  0  0  0  0  0  0  0  0  0  0  0
  -35.6010    9.2890  -19.8950 O   0  0  0  0  0  0  0  0  0  0  0  0
  -35.7500   10.0190  -20.5820 H   0  0  0  0  0  0  0  0  0  0  0  0
  -32.4400   12.8380  -14.3630 C   0  0  2  0  0  3  0  0  0  0  0  0
  -32.2740   11.5910  -15.2700 C   0  0  2  0  0  3  0  0  0  0  0  0
  -33.6240   11.1740  -15.8940 C   0  0  2  0  0  3  0  0  0  0  0  0
  -34.7830   11.5360  -14.9520 C   0  0  1  0  0  3  0  0  0  0  0  0
  -34.7640   13.0770  -14.7080 C   0  0  2  0  0  3  0  0  0  0  0  0
  -33.4790   13.6800  -14.8360 O   0  0  0  0  0  0  0  0  0  0  0  0
  -31.2370   13.5600  -14.3090 O   0  0  0  0  0  0  0  0  0  0  0  0
  -31.3690   14.3020  -13.6630 H   0  0  0  0  0  0  0  0  0  0  0  0
  -31.7420   10.5310  -14.5140 O   0  0  0  0  0  0  0  0  0  0  0  0
  -32.5130    9.9960  -14.1900 H   0  0  0  0  0  0  0  0  0  0  0  0
  -33.6240    9.7950  -16.1680 O   0  0  0  0  0  0  0  0  0  0  0  0
  -33.9060    9.6870  -17.1130 H   0  0  0  0  0  0  0  0  0  0  0  0
  -35.3860   13.4560  -13.3910 C   0  0  0  0  0  0  0  0  0  0  0  0
  -36.1040   14.4900  -13.3110 O   0  0  0  0  0  0  0  0  0  0  0  0
  -35.1550   12.6890  -12.2540 O   0  0  0  0  0  0  0  0  0  0  0  0
  -35.2460   11.6810  -12.2790 H   0  0  0  0  0  0  0  0  0  0  0  0
  2  1  1  1  0  0  0
  3  8  1  6  0  0  0
  3  2  1  0  0  0  0
  4 10  1  6  0  0  0
  4  3  1  0  0  0  0
  5 12  1  1  0  0  0
  5  6  1  0  0  0  0
  5  4  1  0  0  0  0
  6 14  1  6  0  0  0
  7  6  1  0  0  0  0
  7  2  1  0  0  0  0
  9  8  1  0  0  0  0
 11 10  1  0  0  0  0
 12 13  1  0  0  0  0
 15 14  2  0  0  0  0
 16 14  1  0  0  0  0
 17 16  1  0  0  0  0
 18 24  1  6  0  0  0
 19 26  1  1  0  0  0
 19 18  1  0  0  0  0
 20 28  1  1  0  0  0
 20 19  1  0  0  0  0
 20 21  1  0  0  0  0
 21  1  1  6  0  0  0
 21 22  1  0  0  0  0
 22 30  1  1  0  0  0
 23 22  1  0  0  0  0
 23 18  1  0  0  0  0
 24 25  1  0  0  0  0
 26 27  1  0  0  0  0
 29 28  1  0  0  0  0
 30 31  2  0  0  0  0
 30 32  1  0  0  0  0
 33 32  1  0  0  0  0
M  END
>  <MODEL>
9

>  <REMARK>
 VINA RESULT:    -6.537      1.422      5.987
 INTER + INTRA:         -10.710
 INTER:                  -9.675
 INTRA:                  -1.036
 UNBOUND:                -1.116
  Name = BEM
  12 active torsions:
  status: ('A' for Active; 'I' for Inactive)
    1  A    between atoms: C_1  and  O_20
    2  A    between atoms: C_2  and  O_3
    3  A    between atoms: C_4  and  O_5
    4  A    between atoms: C_6  and  O_7
    5  A    between atoms: C_8  and  C_10
    6  A    between atoms: C_10  and  O_11
    7  A    between atoms: C_13  and  O_14
    8  A    between atoms: C_15  and  O_16
    9  A    between atoms: C_17  and  O_18
   10  A    between atoms: C_19  and  O_20
   11  A    between atoms: C_21  and  C_23
   12  A    between atoms: C_23  and  O_25
                            x       y       z     vdW  Elec       q    Type
                         _______ _______ _______ _____ _____    ______ ____

>  <TORSDO>
F 12

$$$$
