BEM
 OpenBabel09132600403D

 33 34  0  0  1  0  0  0  0  0999 V2000
  -34.1790   11.9190  -16.5660 O   0  0  0  0  0  0  0  0  0  0  0  0
  -34.8620   12.3070  -15.3810 C   0  0  2  0  0  3  0  0  0  0  0  0
  -34.0930   13.4240  -14.6370 C   0  0  2  0  0  3  0  0  0  0  0  0
  -32.7640   12.8790  -14.0850 C   0  0  2  0  0  3  0  0  0  0  0  0
  -33.0090   11.5940  -13.2790 C   0  0  1  0  0  3  0  0  0  0  0  0
  -33.8340   10.6030  -14.1270 C   0  0  2  0  0  3  0  0  0  0  0  0
  -35.0630   11.1830  -14.5390 O   0  0  0  0  0  0  0  0  0  0  0  0
  -34.8750   13.9180  -13.5780 O   0  0  0  0  0  0  0  0  0  0  0  0
  -34.5360   14.8270  -13.3710 H   0  0  0  0  0  0  0  0  0  0  0  0
  -32.1480   13.8390  -13.2670 O   0  0  0  0  0  0  0  0  0  0  0  0
  -31.7670   14.5290  -13.8720 H   0  0  0  0  0  0  0  0  0  0  0  0
  -31.7800   11.0060  -12.9350 O   0  0  0  0  0  0  0  0  0  0  0  0
  -31.3790   11.5710  -12.2230 H   0  0  0  0  0  0  0  0  0  0  0  0
  -34.1330    9.3690  -13.3270 C   0  0  0  0  0  0  0  0  0  0  0  0
  -33.1900    8.6680  -12.8670 O   0  0  0  0  0  0  0  0  0  0  0  0
  -35.4520    8.9790  -13.1210 O   0  0  0  0  0  0  0  0  0  0  0  0
  -35.9560    8.4570  -13.8290 H   0  0  0  0  0  0  0  0  0  0  0  0
  -37.1610   10.1750  -18.8140 C   0  0  2  0  0  3  0  0  0  0  0  0
  -35.8720    9.3200  -18.7100 C   0  0  2  0  0  3  0  0  0  0  0  0
  -34.9060    9.8980  -17.6520 C   0  0  2  0  0  3  0  0  0  0  0  0
  -35.0630   11.4250  -17.5620 C   0  0  1  0  0  3  0  0  0  0  0  0
  -36.5380   11.7500  -17.1690 C   0  0  2  0  0  3  0  0  0  0  0  0
  -37.4870   10.7640  -17.5660 O   0  0  0  0  0  0  0  0  0  0  0  0
  -38.2320    9.3820  -19.2540 O   0  0  0  0  0  0  0  0  0  0  0  0
  -39.0430    9.6900  -18.7720 H   0  0  0  0  0  0  0  0  0  0  0  0
  -35.2400    9.2720  -19.9660 O   0  0  0  0  0  0  0  0  0  0  0  0
  -35.9140    9.5580  -20.6360 H   0  0  0  0  0  0  0  0  0  0  0  0
  -33.5800    9.5590  -17.9710 O   0  0  0  0  0  0  0  0  0  0  0  0
  -33.5210    9.5160  -18.9610 H   0  0  0  0  0  0  0  0  0  0  0  0
  -36.9720   13.1090  -17.6490 C   0  0  0  0  0  0  0  0  0  0  0  0
  -38.1960   13.4120  -17.6540 O   0  0  0  0  0  0  0  0  0  0  0  0
  -36.0340   14.0280  -18.1100 O   0  0  0  0  0  0  0  0  0  0  0  0
  -36.3110   14.7980  -18.7070 H   0  0  0  0  0  0  0  0  0  0  0  0
  2  1  1  6  0  0  0
  2  3  1  0  0  0  0
  2  7  1  0  0  0  0
  3  4  1  0  0  0  0
  3  8  1  1  0  0  0
  4  5  1  0  0  0  0
  4 10  1  1  0  0  0
  5 12  1  6  0  0  0
  6 14  1  1  0  0  0
  6  5  1  0  0  0  0
  7  6  1  0  0  0  0
  8  9  1  0  0  0  0
 11 10  1  0  0  0  0
 12 13  1  0  0  0  0
 14 16  1  0  0  0  0
 14 15  2  0  0  0  0
 17 16  1  0  0  0  0
 18 24  1  1  0  0  0
 18 19  1  0  0  0  0
 18 23  1  0  0  0  0
 19 26  1  6  0  0  0
 19 20  1  0  0  0  0
 20 28  1  6  0  0  0
 20 21  1  0  0  0  0
 21 22  1  0  0  0  0
 21  1  1  1  0  0  0
 22 30  1  6  0  0  0
 23 22  1  0  0  0  0
 24 25  1  0  0  0  0
 27 26  1  0  0  0  0
 29 28  1  0  0  0  0
 31 30  2  0  0  0  0
 32 30  1  0  0  0  0
 33 32  1  0  0  0  0
M  END
>  <MODEL>
11

>  <REMARK>
 VINA RESULT:    -6.412      1.246      1.753
 INTER + INTRA:         -10.527
 INTER:                  -9.824
 INTRA:                  -0.703
 UNBOUND:                -1.116
  Name = BEM
  12 active torsions:
  status: ('A' for Active; 'I' for Inactive)
    1  A    between atoms: C_1  and  O_20
    2  A    between atoms: C_2  and  O_3
    3  A    between atoms: C_4  and  O_5
    4  A    between atoms: C_6  and  O_7
    5  A    between atoms: C_8  and  C_10
    6  A    between atoms: C_10  and  O_11
    7  A    between atoms: C_13  and  O_14
    8  A    between atoms: C_15  and  O_16
    9  A    between atoms: C_17  and  O_18
   10  A    between atoms: C_19  and  O_20
   11  A    between atoms: C_21  and  C_23
   12  A    between atoms: C_23  and  O_25
                            x       y       z     vdW  Elec       q    Type
                         _______ _______ _______ _____ _____    ______ ____

>  <TORSDO>
F 12

$$$$
