BET
     RDKit          3D

  8  7  0  0  0  0  0  0  0  0999 V2000
   72.9430   20.9140   61.4630 C   0  0  0  0  0  2  0  0  0  0  0  0
   74.2590   20.5700   60.8490 N   0  0  1  0  0  0  0  0  0  0  0  0
   74.0770   19.9460   59.5160 C   0  0  0  0  0  1  0  0  0  0  0  0
   75.1170   21.7720   60.7220 C   0  0  0  0  0  1  0  0  0  0  0  0
   74.9430   19.5950   61.7340 C   0  0  0  0  0  1  0  0  0  0  0  0
   71.8650   21.2330   60.4580 C   0  0  0  0  0  0  0  0  0  0  0  0
   71.7160   22.4130   60.0410 O   0  0  0  0  0  0  0  0  0  0  0  0
   71.0280   20.2230   59.9930 O   0  0  0  0  0  0  0  0  0  0  0  0
  2  1  1  0
  2  5  1  1
  3  2  1  0
  4  2  1  0
  6  1  1  0
  7  6  2  0
  8  6  1  0
M  CHG  1   2   1
M  RAD  4   1   3   3   2   4   2   5   2
M  END
>  <MODEL>  (1) 
10

>  <REMARK>  (1) 
 VINA RESULT:    -3.380      2.827      3.298
 INTER + INTRA:          -3.764
 INTER:                  -3.903
 INTRA:                   0.139
 UNBOUND:                 0.111
  Name = BET
  6 active torsions:
  status: ('A' for Active; 'I' for Inactive)
    1  A    between atoms: N_1  and  C_2
    2  A    between atoms: N_1  and  C_6
    3  A    between atoms: N_1  and  C_7
    4  A    between atoms: N_1  and  C_8
    5  A    between atoms: C_2  and  C_3
    6  A    between atoms: C_3  and  O_5
                            x       y       z     vdW  Elec       q    Type
                         _______ _______ _______ _____ _____    ______ ____

>  <TORSDO>  (1) 
F 3

$$$$
