BET
     RDKit          3D

  8  7  0  0  0  0  0  0  0  0999 V2000
   74.6590   20.0260   62.7520 C   0  0  0  0  0  2  0  0  0  0  0  0
   74.8070   20.4450   61.3270 N   0  0  1  0  0  0  0  0  0  0  0  0
   73.4980   20.8340   60.7500 C   0  0  0  0  0  1  0  0  0  0  0  0
   75.7620   21.5720   61.2010 C   0  0  0  0  0  1  0  0  0  0  0  0
   75.3360   19.2920   60.5570 C   0  0  0  0  0  1  0  0  0  0  0  0
   74.5680   21.1780   63.7210 C   0  0  0  0  0  0  0  0  0  0  0  0
   75.5520   21.4670   64.4550 O   0  0  0  0  0  0  0  0  0  0  0  0
   73.3950   21.9210   63.8090 O   0  0  0  0  0  0  0  0  0  0  0  0
  1  6  1  0
  2  1  1  0
  2  3  1  6
  4  2  1  0
  5  2  1  0
  6  8  1  0
  6  7  2  0
M  CHG  1   2   1
M  RAD  4   1   3   3   2   4   2   5   2
M  END
>  <MODEL>  (1) 
1

>  <REMARK>  (1) 
 VINA RESULT:    -4.460      0.000      0.000
 INTER + INTRA:          -5.001
 INTER:                  -5.112
 INTRA:                   0.111
 UNBOUND:                 0.111
  Name = BET
  6 active torsions:
  status: ('A' for Active; 'I' for Inactive)
    1  A    between atoms: N_1  and  C_2
    2  A    between atoms: N_1  and  C_6
    3  A    between atoms: N_1  and  C_7
    4  A    between atoms: N_1  and  C_8
    5  A    between atoms: C_2  and  C_3
    6  A    between atoms: C_3  and  O_5
                            x       y       z     vdW  Elec       q    Type
                         _______ _______ _______ _____ _____    ______ ____

>  <TORSDO>  (1) 
F 3

$$$$
