BET
     RDKit          3D

  8  7  0  0  0  0  0  0  0  0999 V2000
   74.2870   20.8290   62.5860 C   0  0  0  0  0  2  0  0  0  0  0  0
   75.0790   20.6490   61.3340 N   0  0  1  0  0  0  0  0  0  0  0  0
   76.4560   21.1730   61.4970 C   0  0  0  0  0  1  0  0  0  0  0  0
   75.1340   19.2200   60.9410 C   0  0  0  0  0  1  0  0  0  0  0  0
   74.4120   21.4100   60.2490 C   0  0  0  0  0  1  0  0  0  0  0  0
   75.0890   20.6460   63.8490 C   0  0  0  0  0  0  0  0  0  0  0  0
   75.4290   21.6490   64.5340 O   0  0  0  0  0  0  0  0  0  0  0  0
   75.4600   19.3690   64.2580 O   0  0  0  0  0  0  0  0  0  0  0  0
  1  6  1  0
  2  3  1  1
  2  1  1  0
  4  2  1  0
  5  2  1  0
  6  8  1  0
  6  7  2  0
M  CHG  1   2   1
M  RAD  4   1   3   3   2   4   2   5   2
M  END
>  <MODEL>  (1) 
2

>  <REMARK>  (1) 
 VINA RESULT:    -4.418      1.038      2.042
 INTER + INTRA:          -4.954
 INTER:                  -5.046
 INTRA:                   0.092
 UNBOUND:                 0.111
  Name = BET
  6 active torsions:
  status: ('A' for Active; 'I' for Inactive)
    1  A    between atoms: N_1  and  C_2
    2  A    between atoms: N_1  and  C_6
    3  A    between atoms: N_1  and  C_7
    4  A    between atoms: N_1  and  C_8
    5  A    between atoms: C_2  and  C_3
    6  A    between atoms: C_3  and  O_5
                            x       y       z     vdW  Elec       q    Type
                         _______ _______ _______ _____ _____    ______ ____

>  <TORSDO>  (1) 
F 3

$$$$
