BET
     RDKit          3D

  8  7  0  0  0  0  0  0  0  0999 V2000
   74.9980   19.8190   63.1140 C   0  0  0  0  0  2  0  0  0  0  0  0
   75.7930   19.8960   61.8540 N   0  0  1  0  0  0  0  0  0  0  0  0
   75.8740   21.2910   61.3610 C   0  0  0  0  0  1  0  0  0  0  0  0
   77.1610   19.3590   62.0550 C   0  0  0  0  0  1  0  0  0  0  0  0
   75.1120   19.0730   60.8240 C   0  0  0  0  0  1  0  0  0  0  0  0
   74.7530   21.1570   63.7650 C   0  0  0  0  0  0  0  0  0  0  0  0
   73.6240   21.7090   63.6710 O   0  0  0  0  0  0  0  0  0  0  0  0
   75.7760   21.7850   64.4670 O   0  0  0  0  0  0  0  0  0  0  0  0
  1  6  1  0
  2  4  1  1
  2  1  1  0
  3  2  1  0
  5  2  1  0
  6  8  1  0
  7  6  2  0
M  CHG  1   2   1
M  RAD  4   1   3   3   2   4   2   5   2
M  END
>  <MODEL>  (1) 
4

>  <REMARK>  (1) 
 VINA RESULT:    -4.297      1.009      1.815
 INTER + INTRA:          -4.814
 INTER:                  -5.000
 INTRA:                   0.185
 UNBOUND:                 0.111
  Name = BET
  6 active torsions:
  status: ('A' for Active; 'I' for Inactive)
    1  A    between atoms: N_1  and  C_2
    2  A    between atoms: N_1  and  C_6
    3  A    between atoms: N_1  and  C_7
    4  A    between atoms: N_1  and  C_8
    5  A    between atoms: C_2  and  C_3
    6  A    between atoms: C_3  and  O_5
                            x       y       z     vdW  Elec       q    Type
                         _______ _______ _______ _____ _____    ______ ____

>  <TORSDO>  (1) 
F 3

$$$$
