BET
     RDKit          3D

  8  7  0  0  0  0  0  0  0  0999 V2000
   77.6640   11.3220   71.4760 C   0  0  0  0  0  2  0  0  0  0  0  0
   77.4330   11.8290   72.8610 N   0  0  1  0  0  0  0  0  0  0  0  0
   77.0470   10.7250   73.7730 C   0  0  0  0  0  1  0  0  0  0  0  0
   78.6420   12.5080   73.3860 C   0  0  0  0  0  1  0  0  0  0  0  0
   76.3230   12.8120   72.8170 C   0  0  0  0  0  1  0  0  0  0  0  0
   78.4460   10.0350   71.4190 C   0  0  0  0  0  0  0  0  0  0  0  0
   79.6370    9.9990   71.8300 O   0  0  0  0  0  0  0  0  0  0  0  0
   77.8530    8.8850   70.9070 O   0  0  0  0  0  0  0  0  0  0  0  0
  1  2  1  0
  2  4  1  1
  2  3  1  0
  5  2  1  0
  6  1  1  0
  6  7  2  0
  8  6  1  0
M  CHG  1   2   1
M  RAD  4   1   3   3   2   4   2   5   2
M  END
>  <MODEL>  (1) 
7

>  <REMARK>  (1) 
 VINA RESULT:    -3.511     14.085     14.718
 INTER + INTRA:          -3.914
 INTER:                  -4.101
 INTRA:                   0.187
 UNBOUND:                 0.111
  Name = BET
  6 active torsions:
  status: ('A' for Active; 'I' for Inactive)
    1  A    between atoms: N_1  and  C_2
    2  A    between atoms: N_1  and  C_6
    3  A    between atoms: N_1  and  C_7
    4  A    between atoms: N_1  and  C_8
    5  A    between atoms: C_2  and  C_3
    6  A    between atoms: C_3  and  O_5
                            x       y       z     vdW  Elec       q    Type
                         _______ _______ _______ _____ _____    ______ ____

>  <TORSDO>  (1) 
F 3

$$$$
