BET
     RDKit          3D

  8  7  0  0  0  0  0  0  0  0999 V2000
   74.5540   21.4060   61.2840 C   0  0  0  0  0  2  0  0  0  0  0  0
   75.2710   20.6360   62.3430 N   0  0  1  0  0  0  0  0  0  0  0  0
   74.9400   21.1540   63.6920 C   0  0  0  0  0  1  0  0  0  0  0  0
   74.9370   19.1930   62.2680 C   0  0  0  0  0  1  0  0  0  0  0  0
   76.7300   20.7920   62.1240 C   0  0  0  0  0  1  0  0  0  0  0  0
   73.1120   21.0040   61.1060 C   0  0  0  0  0  0  0  0  0  0  0  0
   72.2340   21.4250   61.9060 O   0  0  0  0  0  0  0  0  0  0  0  0
   72.7500   20.1620   60.0590 O   0  0  0  0  0  0  0  0  0  0  0  0
  1  2  1  0
  2  3  1  1
  4  2  1  0
  5  2  1  0
  6  1  1  0
  6  7  2  0
  8  6  1  0
M  CHG  1   2   1
M  RAD  4   1   3   3   2   4   2   5   2
M  END
>  <MODEL>  (1) 
8

>  <REMARK>  (1) 
 VINA RESULT:    -3.471      1.938      3.049
 INTER + INTRA:          -3.868
 INTER:                  -3.982
 INTRA:                   0.114
 UNBOUND:                 0.111
  Name = BET
  6 active torsions:
  status: ('A' for Active; 'I' for Inactive)
    1  A    between atoms: N_1  and  C_2
    2  A    between atoms: N_1  and  C_6
    3  A    between atoms: N_1  and  C_7
    4  A    between atoms: N_1  and  C_8
    5  A    between atoms: C_2  and  C_3
    6  A    between atoms: C_3  and  O_5
                            x       y       z     vdW  Elec       q    Type
                         _______ _______ _______ _____ _____    ______ ____

>  <TORSDO>  (1) 
F 3

$$$$
