BET
     RDKit          3D

  8  7  0  0  0  0  0  0  0  0999 V2000
   83.4490    8.1330   73.9150 C   0  0  0  0  0  2  0  0  0  0  0  0
   84.0160    7.7910   75.2520 N   0  0  1  0  0  0  0  0  0  0  0  0
   83.0470    7.0070   76.0550 C   0  0  0  0  0  1  0  0  0  0  0  0
   85.2800    7.0280   75.1150 C   0  0  0  0  0  1  0  0  0  0  0  0
   84.3060    9.0560   75.9710 C   0  0  0  0  0  1  0  0  0  0  0  0
   84.4820    8.5640   72.9050 C   0  0  0  0  0  0  0  0  0  0  0  0
   85.1290    9.6330   73.0770 O   0  0  0  0  0  0  0  0  0  0  0  0
   84.7210    7.7820   71.7790 O   0  0  0  0  0  0  0  0  0  0  0  0
  1  2  1  0
  2  5  1  1
  2  3  1  0
  4  2  1  0
  6  7  2  0
  6  1  1  0
  8  6  1  0
M  CHG  1   2   1
M  RAD  4   1   3   3   2   4   2   5   2
M  END
>  <MODEL>  (1) 
14

>  <REMARK>  (1) 
 VINA RESULT:    -3.275     19.313     20.177
 INTER + INTRA:          -3.643
 INTER:                  -3.889
 INTRA:                   0.246
 UNBOUND:                 0.111
  Name = BET
  6 active torsions:
  status: ('A' for Active; 'I' for Inactive)
    1  A    between atoms: N_1  and  C_2
    2  A    between atoms: N_1  and  C_6
    3  A    between atoms: N_1  and  C_7
    4  A    between atoms: N_1  and  C_8
    5  A    between atoms: C_2  and  C_3
    6  A    between atoms: C_3  and  O_5
                            x       y       z     vdW  Elec       q    Type
                         _______ _______ _______ _____ _____    ______ ____

>  <TORSDO>  (1) 
F 3

$$$$
