BET
     RDKit          3D

  8  7  0  0  0  0  0  0  0  0999 V2000
   76.3790   12.8520   72.6990 C   0  0  0  0  0  2  0  0  0  0  0  0
   76.0320   12.6890   74.1410 N   0  0  1  0  0  0  0  0  0  0  0  0
   76.5670   13.8120   74.9470 C   0  0  0  0  0  1  0  0  0  0  0  0
   74.5640   12.5980   74.3270 C   0  0  0  0  0  1  0  0  0  0  0  0
   76.6460   11.4290   74.6270 C   0  0  0  0  0  1  0  0  0  0  0  0
   77.6570   13.6150   72.4600 C   0  0  0  0  0  0  0  0  0  0  0  0
   78.7720   13.0460   72.6120 O   0  0  0  0  0  0  0  0  0  0  0  0
   77.6070   14.9510   72.0760 O   0  0  0  0  0  0  0  0  0  0  0  0
  1  2  1  0
  2  4  1  6
  2  5  1  0
  2  3  1  0
  6  7  2  0
  6  1  1  0
  8  6  1  0
M  CHG  1   2   1
M  RAD  4   1   3   3   2   4   2   5   2
M  END
>  <MODEL>  (1) 
20

>  <REMARK>  (1) 
 VINA RESULT:    -3.123     13.054     14.057
 INTER + INTRA:          -3.469
 INTER:                  -3.611
 INTRA:                   0.143
 UNBOUND:                 0.111
  Name = BET
  6 active torsions:
  status: ('A' for Active; 'I' for Inactive)
    1  A    between atoms: N_1  and  C_2
    2  A    between atoms: N_1  and  C_6
    3  A    between atoms: N_1  and  C_7
    4  A    between atoms: N_1  and  C_8
    5  A    between atoms: C_2  and  C_3
    6  A    between atoms: C_3  and  O_5
                            x       y       z     vdW  Elec       q    Type
                         _______ _______ _______ _____ _____    ______ ____

>  <TORSDO>  (1) 
F 3

$$$$
