BET
     RDKit          3D

  8  7  0  0  0  0  0  0  0  0999 V2000
   78.5040   10.3560   73.3780 C   0  0  0  0  0  2  0  0  0  0  0  0
   77.5270   11.4800   73.4730 N   0  0  1  0  0  0  0  0  0  0  0  0
   77.6960   12.4270   72.3450 C   0  0  0  0  0  1  0  0  0  0  0  0
   76.1340   10.9720   73.4910 C   0  0  0  0  0  1  0  0  0  0  0  0
   77.7780   12.2090   74.7400 C   0  0  0  0  0  1  0  0  0  0  0  0
   78.7410    9.8680   71.9720 C   0  0  0  0  0  0  0  0  0  0  0  0
   79.8740   10.0070   71.4360 O   0  0  0  0  0  0  0  0  0  0  0  0
   77.7060    9.2680   71.2610 O   0  0  0  0  0  0  0  0  0  0  0  0
  1  2  1  0
  2  4  1  1
  2  5  1  0
  3  2  1  0
  6  1  1  0
  7  6  2  0
  8  6  1  0
M  CHG  1   2   1
M  RAD  4   1   3   3   2   4   2   5   2
M  END
>  <MODEL>  (1) 
11

>  <REMARK>  (1) 
 VINA RESULT:    -3.375     14.276     15.192
 INTER + INTRA:          -3.757
 INTER:                  -3.890
 INTRA:                   0.133
 UNBOUND:                 0.111
  Name = BET
  6 active torsions:
  status: ('A' for Active; 'I' for Inactive)
    1  A    between atoms: N_1  and  C_2
    2  A    between atoms: N_1  and  C_6
    3  A    between atoms: N_1  and  C_7
    4  A    between atoms: N_1  and  C_8
    5  A    between atoms: C_2  and  C_3
    6  A    between atoms: C_3  and  O_5
                            x       y       z     vdW  Elec       q    Type
                         _______ _______ _______ _____ _____    ______ ____

>  <TORSDO>  (1) 
F 3

$$$$
