5GP
 OpenBabel09132600403D

 31 33  0  0  1  0  0  0  0  0999 V2000
   25.4100   -2.0530   51.5620 C   0  0  1  0  0  3  0  0  0  0  0  0
   24.6380   -2.9300   50.7640 O   0  0  0  0  0  0  0  0  0  0  0  0
   25.0630   -0.6020   51.1980 C   0  0  2  0  0  3  0  0  0  0  0  0
   23.6820   -0.7410   50.6010 C   0  0  2  0  0  3  0  0  0  0  0  0
   23.6930   -2.1640   50.0440 C   0  0  2  0  0  3  0  0  0  0  0  0
   22.3650   -2.7700   50.1510 N   0  0  0  0  0  0  0  0  0  0  0  0
   21.6060   -3.3130   49.1610 C   0  0  0  0  0  3  0  0  0  0  0  0
   20.4600   -3.8910   49.6170 N   0  0  0  0  0  0  0  0  0  0  0  0
   20.5390   -3.6960   50.9470 C   0  0  0  0  0  0  0  0  0  0  0  0
   19.6660   -4.0940   51.9490 C   0  0  0  0  0  0  0  0  0  0  0  0
   18.6030   -4.7140   51.6800 O   0  0  0  0  0  0  0  0  0  0  0  0
   19.9970   -3.7950   53.2430 N   0  0  0  0  0  0  0  0  0  0  0  0
   21.1630   -3.1280   53.5420 C   0  0  0  0  0  0  0  0  0  0  0  0
   21.4930   -2.8320   54.8990 N   0  0  0  0  0  0  0  0  0  0  0  0
   22.0160   -2.7450   52.5420 N   0  0  0  0  0  0  0  0  0  0  0  0
   21.6740   -3.0370   51.2650 C   0  0  0  0  0  0  0  0  0  0  0  0
   19.3550   -4.0850   54.0150 H   0  0  0  0  0  0  0  0  0  0  0  0
   22.3770   -2.3280   55.1290 H   0  0  0  0  0  0  0  0  0  0  0  0
   20.8570   -3.1160   55.6770 H   0  0  0  0  0  0  0  0  0  0  0  0
   25.9920   -0.0670   50.2820 O   0  0  0  0  0  0  0  0  0  0  0  0
   26.2570   -0.7850   49.6490 H   0  0  0  0  0  0  0  0  0  0  0  0
   23.3820    0.2430   49.6380 O   0  0  0  0  0  0  0  0  0  0  0  0
   22.7380   -0.1350   48.9850 H   0  0  0  0  0  0  0  0  0  0  0  0
   25.1350   -2.3450   53.0430 C   0  0  0  0  0  2  0  0  0  0  0  0
   24.7820   -1.1470   53.6920 O   0  0  0  0  0  0  0  0  0  0  0  0
   25.2330   -1.2640   55.3340 P   0  0  0  0  0  0  0  0  0  0  0  0
   26.0420   -0.0500   55.7360 O   0  0  0  0  0  0  0  0  0  0  0  0
   26.1370   -2.6720   55.6030 O   0  0  0  0  0  0  0  0  0  0  0  0
   27.0650   -2.4380   55.3480 H   0  0  0  0  0  0  0  0  0  0  0  0
   23.8330   -1.3300   56.2800 O   0  0  0  0  0  0  0  0  0  0  0  0
   23.5120   -2.2630   56.1930 H   0  0  0  0  0  0  0  0  0  0  0  0
  1 24  1  1  0  0  0
  2  1  1  0  0  0  0
  3 20  1  6  0  0  0
  3  1  1  0  0  0  0
  4 22  1  6  0  0  0
  4  3  1  0  0  0  0
  5  6  1  1  0  0  0
  5  4  1  0  0  0  0
  5  2  1  0  0  0  0
  6 16  1  0  0  0  0
  7  8  2  0  0  0  0
  7  6  1  0  0  0  0
  8  9  1  0  0  0  0
  9 16  2  0  0  0  0
  9 10  1  0  0  0  0
 10 12  1  0  0  0  0
 11 10  2  0  0  0  0
 12 13  1  0  0  0  0
 12 17  1  0  0  0  0
 13 14  1  0  0  0  0
 14 18  1  0  0  0  0
 14 19  1  0  0  0  0
 15 13  2  0  0  0  0
 16 15  1  0  0  0  0
 21 20  1  0  0  0  0
 23 22  1  0  0  0  0
 24 25  1  0  0  0  0
 25 26  1  0  0  0  0
 26 28  1  0  0  0  0
 26 27  2  0  0  0  0
 26 30  1  0  0  0  0
 29 28  1  0  0  0  0
 31 30  1  0  0  0  0
M  END
>  <MODEL>
8

>  <REMARK>
 VINA RESULT:    -6.479      3.226      5.465
 INTER + INTRA:          -9.703
 INTER:                  -9.044
 INTRA:                  -0.658
 UNBOUND:                -0.951
  Name = 5GP
  8 active torsions:
  status: ('A' for Active; 'I' for Inactive)
    1  A    between atoms: P_1  and  O_3
    2  A    between atoms: P_1  and  O_4
    3  A    between atoms: P_1  and  O_5
    4  A    between atoms: O_5  and  C_6
    5  A    between atoms: C_6  and  C_7
    6  A    between atoms: C_9  and  O_10
    7  A    between atoms: C_11  and  O_12
    8  A    between atoms: C_13  and  N_14
                            x       y       z     vdW  Elec       q    Type
                         _______ _______ _______ _____ _____    ______ ____

>  <TORSDO>
F 8

$$$$
