5GP
 OpenBabel09132600403D

 31 33  0  0  1  0  0  0  0  0999 V2000
   26.2130   -0.7700   49.2460 C   0  0  1  0  0  3  0  0  0  0  0  0
   26.1750   -1.7640   50.2520 O   0  0  0  0  0  0  0  0  0  0  0  0
   24.8700   -0.0250   49.2220 C   0  0  2  0  0  3  0  0  0  0  0  0
   24.3440   -0.2670   50.6180 C   0  0  2  0  0  3  0  0  0  0  0  0
   24.9860   -1.6000   50.9990 C   0  0  2  0  0  3  0  0  0  0  0  0
   25.2810   -1.6390   52.4320 N   0  0  0  0  0  0  0  0  0  0  0  0
   26.4360   -1.2930   53.0620 C   0  0  0  0  0  3  0  0  0  0  0  0
   26.3450   -1.3450   54.4210 N   0  0  0  0  0  0  0  0  0  0  0  0
   25.0690   -1.7310   54.6170 C   0  0  0  0  0  0  0  0  0  0  0  0
   24.3820   -1.9300   55.8050 C   0  0  0  0  0  0  0  0  0  0  0  0
   24.9490   -1.7760   56.9200 O   0  0  0  0  0  0  0  0  0  0  0  0
   23.0650   -2.2940   55.7300 N   0  0  0  0  0  0  0  0  0  0  0  0
   22.4390   -2.4520   54.5150 C   0  0  0  0  0  0  0  0  0  0  0  0
   21.0630   -2.8270   54.4590 N   0  0  0  0  0  0  0  0  0  0  0  0
   23.1310   -2.2490   53.3500 N   0  0  0  0  0  0  0  0  0  0  0  0
   24.4360   -1.8980   53.4360 C   0  0  0  0  0  0  0  0  0  0  0  0
   22.5260   -2.4500   56.6120 H   0  0  0  0  0  0  0  0  0  0  0  0
   20.5860   -2.9460   53.5380 H   0  0  0  0  0  0  0  0  0  0  0  0
   20.5180   -2.9850   55.3350 H   0  0  0  0  0  0  0  0  0  0  0  0
   24.0130   -0.5420   48.2290 O   0  0  0  0  0  0  0  0  0  0  0  0
   23.5080   -1.3040   48.6160 H   0  0  0  0  0  0  0  0  0  0  0  0
   22.9370   -0.2720   50.6970 O   0  0  0  0  0  0  0  0  0  0  0  0
   22.5730   -0.7430   49.9040 H   0  0  0  0  0  0  0  0  0  0  0  0
   27.3840    0.1820   49.5200 C   0  0  0  0  0  2  0  0  0  0  0  0
   28.3040   -0.4530   50.3760 O   0  0  0  0  0  0  0  0  0  0  0  0
   29.8400    0.2530   50.1430 P   0  0  0  0  0  0  0  0  0  0  0  0
   30.1460    1.2080   51.2770 O   0  0  0  0  0  0  0  0  0  0  0  0
   29.8970    1.0780   48.6640 O   0  0  0  0  0  0  0  0  0  0  0  0
   30.8170    1.4410   48.6060 H   0  0  0  0  0  0  0  0  0  0  0  0
   31.0060   -0.9720   50.1260 O   0  0  0  0  0  0  0  0  0  0  0  0
   31.7080   -0.6610   50.7510 H   0  0  0  0  0  0  0  0  0  0  0  0
  1 24  1  1  0  0  0
  1  2  1  0  0  0  0
  2  5  1  0  0  0  0
  3 20  1  6  0  0  0
  3  1  1  0  0  0  0
  3  4  1  0  0  0  0
  4 22  1  6  0  0  0
  4  5  1  0  0  0  0
  5  6  1  1  0  0  0
  6  7  1  0  0  0  0
  6 16  1  0  0  0  0
  7  8  2  0  0  0  0
  8  9  1  0  0  0  0
  9 10  1  0  0  0  0
 10 11  2  0  0  0  0
 12 10  1  0  0  0  0
 12 17  1  0  0  0  0
 13 12  1  0  0  0  0
 14 13  1  0  0  0  0
 14 19  1  0  0  0  0
 15 16  1  0  0  0  0
 15 13  2  0  0  0  0
 16  9  2  0  0  0  0
 18 14  1  0  0  0  0
 20 21  1  0  0  0  0
 23 22  1  0  0  0  0
 24 25  1  0  0  0  0
 26 25  1  0  0  0  0
 26 27  2  0  0  0  0
 28 26  1  0  0  0  0
 29 28  1  0  0  0  0
 30 26  1  0  0  0  0
 30 31  1  0  0  0  0
M  END
>  <MODEL>
4

>  <REMARK>
 VINA RESULT:    -6.606      3.392      6.686
 INTER + INTRA:          -9.873
 INTER:                  -9.012
 INTRA:                  -0.861
 UNBOUND:                -0.951
  Name = 5GP
  8 active torsions:
  status: ('A' for Active; 'I' for Inactive)
    1  A    between atoms: P_1  and  O_3
    2  A    between atoms: P_1  and  O_4
    3  A    between atoms: P_1  and  O_5
    4  A    between atoms: O_5  and  C_6
    5  A    between atoms: C_6  and  C_7
    6  A    between atoms: C_9  and  O_10
    7  A    between atoms: C_11  and  O_12
    8  A    between atoms: C_13  and  N_14
                            x       y       z     vdW  Elec       q    Type
                         _______ _______ _______ _____ _____    ______ ____

>  <TORSDO>
F 8

$$$$
