5GP
 OpenBabel09132600403D

 31 33  0  0  1  0  0  0  0  0999 V2000
   23.8130   -1.3810   52.8190 C   0  0  1  0  0  3  0  0  0  0  0  0
   23.8360   -0.2460   51.9740 O   0  0  0  0  0  0  0  0  0  0  0  0
   23.2520   -2.5790   52.0390 C   0  0  2  0  0  3  0  0  0  0  0  0
   23.5200   -2.1850   50.6060 C   0  0  2  0  0  3  0  0  0  0  0  0
   23.5050   -0.6580   50.6630 C   0  0  2  0  0  3  0  0  0  0  0  0
   24.4550   -0.0960   49.7020 N   0  0  0  0  0  0  0  0  0  0  0  0
   24.2110    0.7820   48.6930 C   0  0  0  0  0  3  0  0  0  0  0  0
   25.3400    1.1900   48.0480 N   0  0  0  0  0  0  0  0  0  0  0  0
   26.3120    0.5330   48.7100 C   0  0  0  0  0  0  0  0  0  0  0  0
   27.6860    0.5700   48.5220 C   0  0  0  0  0  0  0  0  0  0  0  0
   28.2000    1.2720   47.6110 O   0  0  0  0  0  0  0  0  0  0  0  0
   28.4670   -0.1770   49.3600 N   0  0  0  0  0  0  0  0  0  0  0  0
   27.9100   -0.9360   50.3630 C   0  0  0  0  0  0  0  0  0  0  0  0
   28.7440   -1.7030   51.2310 N   0  0  0  0  0  0  0  0  0  0  0  0
   26.5520   -0.9600   50.5380 N   0  0  0  0  0  0  0  0  0  0  0  0
   25.7870   -0.2240   49.6960 C   0  0  0  0  0  0  0  0  0  0  0  0
   29.5060   -0.1650   49.2380 H   0  0  0  0  0  0  0  0  0  0  0  0
   28.3240   -2.2790   51.9940 H   0  0  0  0  0  0  0  0  0  0  0  0
   29.7810   -1.6980   51.1150 H   0  0  0  0  0  0  0  0  0  0  0  0
   21.8770   -2.7590   52.2970 O   0  0  0  0  0  0  0  0  0  0  0  0
   21.4390   -3.0650   51.4600 H   0  0  0  0  0  0  0  0  0  0  0  0
   22.5980   -2.7270   49.6890 O   0  0  0  0  0  0  0  0  0  0  0  0
   21.7700   -2.9740   50.1760 H   0  0  0  0  0  0  0  0  0  0  0  0
   25.2320   -1.6560   53.3330 C   0  0  0  0  0  2  0  0  0  0  0  0
   25.1580   -2.4710   54.4780 O   0  0  0  0  0  0  0  0  0  0  0  0
   25.0710   -1.4670   55.8550 P   0  0  0  0  0  0  0  0  0  0  0  0
   25.9090   -0.2250   55.6420 O   0  0  0  0  0  0  0  0  0  0  0  0
   25.6100   -2.2960   57.2310 O   0  0  0  0  0  0  0  0  0  0  0  0
   26.5620   -2.0400   57.3320 H   0  0  0  0  0  0  0  0  0  0  0  0
   23.4600   -1.0100   56.0950 O   0  0  0  0  0  0  0  0  0  0  0  0
   23.1330   -1.6030   56.8170 H   0  0  0  0  0  0  0  0  0  0  0  0
  1 24  1  6  0  0  0
  2  1  1  0  0  0  0
  3 20  1  6  0  0  0
  3  1  1  0  0  0  0
  4 22  1  6  0  0  0
  4  5  1  0  0  0  0
  4  3  1  0  0  0  0
  5  6  1  6  0  0  0
  5  2  1  0  0  0  0
  7  6  1  0  0  0  0
  8  7  2  0  0  0  0
  8  9  1  0  0  0  0
  9 16  2  0  0  0  0
 10  9  1  0  0  0  0
 10 12  1  0  0  0  0
 11 10  2  0  0  0  0
 12 13  1  0  0  0  0
 13 15  2  0  0  0  0
 13 14  1  0  0  0  0
 14 18  1  0  0  0  0
 16  6  1  0  0  0  0
 16 15  1  0  0  0  0
 17 12  1  0  0  0  0
 19 14  1  0  0  0  0
 21 20  1  0  0  0  0
 22 23  1  0  0  0  0
 24 25  1  0  0  0  0
 25 26  1  0  0  0  0
 26 30  1  0  0  0  0
 26 28  1  0  0  0  0
 27 26  2  0  0  0  0
 28 29  1  0  0  0  0
 30 31  1  0  0  0  0
M  END
>  <MODEL>
12

>  <REMARK>
 VINA RESULT:    -6.188      1.943      2.988
 INTER + INTRA:          -9.310
 INTER:                  -8.985
 INTRA:                  -0.325
 UNBOUND:                -0.951
  Name = 5GP
  8 active torsions:
  status: ('A' for Active; 'I' for Inactive)
    1  A    between atoms: P_1  and  O_3
    2  A    between atoms: P_1  and  O_4
    3  A    between atoms: P_1  and  O_5
    4  A    between atoms: O_5  and  C_6
    5  A    between atoms: C_6  and  C_7
    6  A    between atoms: C_9  and  O_10
    7  A    between atoms: C_11  and  O_12
    8  A    between atoms: C_13  and  N_14
                            x       y       z     vdW  Elec       q    Type
                         _______ _______ _______ _____ _____    ______ ____

>  <TORSDO>
F 8

$$$$
