5GP
 OpenBabel09132600403D

 31 33  0  0  1  0  0  0  0  0999 V2000
   36.7400   -3.6230   45.4510 C   0  0  1  0  0  3  0  0  0  0  0  0
   35.4680   -3.2200   45.9200 O   0  0  0  0  0  0  0  0  0  0  0  0
   37.5840   -4.1120   46.6370 C   0  0  2  0  0  3  0  0  0  0  0  0
   36.5280   -4.4950   47.6470 C   0  0  2  0  0  3  0  0  0  0  0  0
   35.3600   -3.5790   47.2830 C   0  0  2  0  0  3  0  0  0  0  0  0
   34.0830   -4.2500   47.5280 N   0  0  0  0  0  0  0  0  0  0  0  0
   33.2220   -4.7780   46.6170 C   0  0  0  0  0  3  0  0  0  0  0  0
   32.1690   -5.4310   47.1850 N   0  0  0  0  0  0  0  0  0  0  0  0
   32.4140   -5.2970   48.5020 C   0  0  0  0  0  0  0  0  0  0  0  0
   31.6970   -5.7830   49.5860 C   0  0  0  0  0  0  0  0  0  0  0  0
   30.6320   -6.4370   49.4220 O   0  0  0  0  0  0  0  0  0  0  0  0
   32.1830   -5.5330   50.8400 N   0  0  0  0  0  0  0  0  0  0  0  0
   33.3510   -4.8290   51.0220 C   0  0  0  0  0  0  0  0  0  0  0  0
   33.8440   -4.5840   52.3390 N   0  0  0  0  0  0  0  0  0  0  0  0
   34.0500   -4.3580   49.9420 N   0  0  0  0  0  0  0  0  0  0  0  0
   33.5540   -4.6030   48.7060 C   0  0  0  0  0  0  0  0  0  0  0  0
   31.6600   -5.8890   51.6720 H   0  0  0  0  0  0  0  0  0  0  0  0
   34.7310   -4.0520   52.4800 H   0  0  0  0  0  0  0  0  0  0  0  0
   33.3270   -4.9350   53.1750 H   0  0  0  0  0  0  0  0  0  0  0  0
   38.4380   -3.0960   47.1130 O   0  0  0  0  0  0  0  0  0  0  0  0
   38.8920   -3.4270   47.9320 H   0  0  0  0  0  0  0  0  0  0  0  0
   36.9530   -4.3680   48.9840 O   0  0  0  0  0  0  0  0  0  0  0  0
   36.7620   -5.2160   49.4630 H   0  0  0  0  0  0  0  0  0  0  0  0
   36.5640   -4.7180   44.3920 C   0  0  0  0  0  2  0  0  0  0  0  0
   35.3190   -4.5490   43.7560 O   0  0  0  0  0  0  0  0  0  0  0  0
   35.5920   -3.9840   42.1690 P   0  0  0  0  0  0  0  0  0  0  0  0
   35.1540   -5.0300   41.1660 O   0  0  0  0  0  0  0  0  0  0  0  0
   37.2300   -3.6170   41.9410 O   0  0  0  0  0  0  0  0  0  0  0  0
   37.6940   -4.0090   42.7230 H   0  0  0  0  0  0  0  0  0  0  0  0
   34.6820   -2.5780   41.9280 O   0  0  0  0  0  0  0  0  0  0  0  0
   34.6400   -2.1480   42.8190 H   0  0  0  0  0  0  0  0  0  0  0  0
  1 24  1  6  0  0  0
  1  2  1  0  0  0  0
  1  3  1  0  0  0  0
  2  5  1  0  0  0  0
  3 20  1  1  0  0  0
  3  4  1  0  0  0  0
  4 22  1  1  0  0  0
  5  6  1  6  0  0  0
  5  4  1  0  0  0  0
  6 16  1  0  0  0  0
  7  8  2  0  0  0  0
  7  6  1  0  0  0  0
  8  9  1  0  0  0  0
  9 16  2  0  0  0  0
  9 10  1  0  0  0  0
 10 12  1  0  0  0  0
 11 10  2  0  0  0  0
 12 13  1  0  0  0  0
 12 17  1  0  0  0  0
 13 14  1  0  0  0  0
 14 18  1  0  0  0  0
 14 19  1  0  0  0  0
 15 13  2  0  0  0  0
 16 15  1  0  0  0  0
 20 21  1  0  0  0  0
 22 23  1  0  0  0  0
 25 24  1  0  0  0  0
 26 25  1  0  0  0  0
 27 26  2  0  0  0  0
 28 26  1  0  0  0  0
 28 29  1  0  0  0  0
 30 26  1  0  0  0  0
 30 31  1  0  0  0  0
M  END
>  <MODEL>
3

>  <REMARK>
 VINA RESULT:    -6.688     10.202     12.937
 INTER + INTRA:          -9.984
 INTER:                  -9.094
 INTRA:                  -0.891
 UNBOUND:                -0.951
  Name = 5GP
  8 active torsions:
  status: ('A' for Active; 'I' for Inactive)
    1  A    between atoms: P_1  and  O_3
    2  A    between atoms: P_1  and  O_4
    3  A    between atoms: P_1  and  O_5
    4  A    between atoms: O_5  and  C_6
    5  A    between atoms: C_6  and  C_7
    6  A    between atoms: C_9  and  O_10
    7  A    between atoms: C_11  and  O_12
    8  A    between atoms: C_13  and  N_14
                            x       y       z     vdW  Elec       q    Type
                         _______ _______ _______ _____ _____    ______ ____

>  <TORSDO>
F 8

$$$$
