5GP
 OpenBabel09132600403D

 31 33  0  0  1  0  0  0  0  0999 V2000
   30.3880   -2.3320   49.5200 C   0  0  1  0  0  3  0  0  0  0  0  0
   29.0720   -2.7950   49.2800 O   0  0  0  0  0  0  0  0  0  0  0  0
   30.3240   -0.9390   50.1630 C   0  0  2  0  0  3  0  0  0  0  0  0
   28.9450   -0.9320   50.7790 C   0  0  2  0  0  3  0  0  0  0  0  0
   28.1650   -1.8920   49.8810 C   0  0  2  0  0  3  0  0  0  0  0  0
   27.1640   -2.6260   50.6570 N   0  0  0  0  0  0  0  0  0  0  0  0
   27.2300   -3.9020   51.1230 C   0  0  0  0  0  3  0  0  0  0  0  0
   26.1700   -4.2460   51.9050 N   0  0  0  0  0  0  0  0  0  0  0  0
   25.4350   -3.1170   51.9200 C   0  0  0  0  0  0  0  0  0  0  0  0
   24.2440   -2.8500   52.5800 C   0  0  0  0  0  0  0  0  0  0  0  0
   23.6720   -3.7310   53.2760 O   0  0  0  0  0  0  0  0  0  0  0  0
   23.7110   -1.5960   52.4570 N   0  0  0  0  0  0  0  0  0  0  0  0
   24.3390   -0.6270   51.7070 C   0  0  0  0  0  0  0  0  0  0  0  0
   23.7690    0.6770   51.5970 N   0  0  0  0  0  0  0  0  0  0  0  0
   25.5150   -0.9060   51.0640 N   0  0  0  0  0  0  0  0  0  0  0  0
   26.0290   -2.1530   51.1860 C   0  0  0  0  0  0  0  0  0  0  0  0
   22.8150   -1.3710   52.9450 H   0  0  0  0  0  0  0  0  0  0  0  0
   24.2440    1.4130   51.0300 H   0  0  0  0  0  0  0  0  0  0  0  0
   22.8730    0.9100   52.0800 H   0  0  0  0  0  0  0  0  0  0  0  0
   30.4870    0.0780   49.2000 O   0  0  0  0  0  0  0  0  0  0  0  0
   31.0060   -0.2910   48.4380 H   0  0  0  0  0  0  0  0  0  0  0  0
   28.3720    0.3530   50.8670 O   0  0  0  0  0  0  0  0  0  0  0  0
   27.8250    0.4030   51.6920 H   0  0  0  0  0  0  0  0  0  0  0  0
   31.1200   -3.3370   50.4190 C   0  0  0  0  0  2  0  0  0  0  0  0
   32.1010   -4.0050   49.6610 O   0  0  0  0  0  0  0  0  0  0  0  0
   32.7570   -5.2630   50.6080 P   0  0  0  0  0  0  0  0  0  0  0  0
   33.2430   -4.7130   51.9320 O   0  0  0  0  0  0  0  0  0  0  0  0
   34.0370   -6.0170   49.7930 O   0  0  0  0  0  0  0  0  0  0  0  0
   34.6500   -6.3280   50.5060 H   0  0  0  0  0  0  0  0  0  0  0  0
   31.5490   -6.4110   50.9000 O   0  0  0  0  0  0  0  0  0  0  0  0
   31.5060   -6.9500   50.0700 H   0  0  0  0  0  0  0  0  0  0  0  0
  1  3  1  0  0  0  0
  1 24  1  1  0  0  0
  2  1  1  0  0  0  0
  2  5  1  0  0  0  0
  3 20  1  6  0  0  0
  3  4  1  0  0  0  0
  4 22  1  6  0  0  0
  5  6  1  1  0  0  0
  5  4  1  0  0  0  0
  6  7  1  0  0  0  0
  6 16  1  0  0  0  0
  7  8  2  0  0  0  0
  8  9  1  0  0  0  0
  9 10  1  0  0  0  0
 10 11  2  0  0  0  0
 12 10  1  0  0  0  0
 12 17  1  0  0  0  0
 13 12  1  0  0  0  0
 14 13  1  0  0  0  0
 14 19  1  0  0  0  0
 15 16  1  0  0  0  0
 15 13  2  0  0  0  0
 16  9  2  0  0  0  0
 18 14  1  0  0  0  0
 21 20  1  0  0  0  0
 22 23  1  0  0  0  0
 25 24  1  0  0  0  0
 25 26  1  0  0  0  0
 26 30  1  0  0  0  0
 26 27  2  0  0  0  0
 28 29  1  0  0  0  0
 28 26  1  0  0  0  0
 31 30  1  0  0  0  0
M  END
>  <MODEL>
20

>  <REMARK>
 VINA RESULT:    -5.887      4.238      6.920
 INTER + INTRA:          -8.903
 INTER:                  -8.151
 INTRA:                  -0.751
 UNBOUND:                -0.951
  Name = 5GP
  8 active torsions:
  status: ('A' for Active; 'I' for Inactive)
    1  A    between atoms: P_1  and  O_3
    2  A    between atoms: P_1  and  O_4
    3  A    between atoms: P_1  and  O_5
    4  A    between atoms: O_5  and  C_6
    5  A    between atoms: C_6  and  C_7
    6  A    between atoms: C_9  and  O_10
    7  A    between atoms: C_11  and  O_12
    8  A    between atoms: C_13  and  N_14
                            x       y       z     vdW  Elec       q    Type
                         _______ _______ _______ _____ _____    ______ ____

>  <TORSDO>
F 8

$$$$
