5GP
 OpenBabel09132600403D

 31 33  0  0  1  0  0  0  0  0999 V2000
   23.8130   -3.2570   49.2550 C   0  0  1  0  0  3  0  0  0  0  0  0
   23.8590   -3.7810   50.5690 O   0  0  0  0  0  0  0  0  0  0  0  0
   22.3490   -3.0320   48.8520 C   0  0  2  0  0  3  0  0  0  0  0  0
   21.6620   -2.9070   50.1920 C   0  0  2  0  0  3  0  0  0  0  0  0
   22.5540   -3.7400   51.1120 C   0  0  2  0  0  3  0  0  0  0  0  0
   22.5860   -3.1670   52.4580 N   0  0  0  0  0  0  0  0  0  0  0  0
   21.6420   -3.2580   53.4330 C   0  0  0  0  0  3  0  0  0  0  0  0
   22.0300   -2.6990   54.6130 N   0  0  0  0  0  0  0  0  0  0  0  0
   23.2730   -2.2600   54.3370 C   0  0  0  0  0  0  0  0  0  0  0  0
   24.1860   -1.6250   55.1650 C   0  0  0  0  0  0  0  0  0  0  0  0
   23.9020   -1.3520   56.3620 O   0  0  0  0  0  0  0  0  0  0  0  0
   25.4110   -1.3070   54.6440 N   0  0  0  0  0  0  0  0  0  0  0  0
   25.7290   -1.6130   53.3410 C   0  0  0  0  0  0  0  0  0  0  0  0
   27.0150   -1.2780   52.8180 N   0  0  0  0  0  0  0  0  0  0  0  0
   24.8180   -2.2430   52.5370 N   0  0  0  0  0  0  0  0  0  0  0  0
   23.6050   -2.5450   53.0610 C   0  0  0  0  0  0  0  0  0  0  0  0
   26.1160   -0.8280   55.2490 H   0  0  0  0  0  0  0  0  0  0  0  0
   27.2590   -1.5110   51.8310 H   0  0  0  0  0  0  0  0  0  0  0  0
   27.7240   -0.7990   53.4150 H   0  0  0  0  0  0  0  0  0  0  0  0
   21.8530   -4.1120   48.0940 O   0  0  0  0  0  0  0  0  0  0  0  0
   22.1710   -4.9570   48.5070 H   0  0  0  0  0  0  0  0  0  0  0  0
   20.3160   -3.3250   50.1780 O   0  0  0  0  0  0  0  0  0  0  0  0
   19.7520   -2.5980   50.5490 H   0  0  0  0  0  0  0  0  0  0  0  0
   24.6220   -1.9540   49.2020 C   0  0  0  0  0  2  0  0  0  0  0  0
   23.8070   -0.9260   48.6900 O   0  0  0  0  0  0  0  0  0  0  0  0
   23.8960    0.4130   49.7430 P   0  0  0  0  0  0  0  0  0  0  0  0
   22.6120    0.5340   50.5350 O   0  0  0  0  0  0  0  0  0  0  0  0
   24.1710    1.8390   48.8700 O   0  0  0  0  0  0  0  0  0  0  0  0
   25.0600    1.7190   48.4510 H   0  0  0  0  0  0  0  0  0  0  0  0
   25.1830    0.1780   50.8160 O   0  0  0  0  0  0  0  0  0  0  0  0
   25.2570    1.0310   51.3130 H   0  0  0  0  0  0  0  0  0  0  0  0
  1 24  1  1  0  0  0
  1  2  1  0  0  0  0
  2  5  1  0  0  0  0
  3 20  1  1  0  0  0
  3  1  1  0  0  0  0
  3  4  1  0  0  0  0
  4 22  1  6  0  0  0
  4  5  1  0  0  0  0
  5  6  1  1  0  0  0
  6 16  1  0  0  0  0
  6  7  1  0  0  0  0
  7  8  2  0  0  0  0
  9  8  1  0  0  0  0
  9 10  1  0  0  0  0
 10 11  2  0  0  0  0
 12 10  1  0  0  0  0
 12 17  1  0  0  0  0
 13 12  1  0  0  0  0
 14 13  1  0  0  0  0
 14 19  1  0  0  0  0
 15 16  1  0  0  0  0
 15 13  2  0  0  0  0
 16  9  2  0  0  0  0
 18 14  1  0  0  0  0
 20 21  1  0  0  0  0
 22 23  1  0  0  0  0
 25 24  1  0  0  0  0
 25 26  1  0  0  0  0
 26 27  2  0  0  0  0
 26 30  1  0  0  0  0
 28 26  1  0  0  0  0
 29 28  1  0  0  0  0
 30 31  1  0  0  0  0
M  END
>  <MODEL>
14

>  <REMARK>
 VINA RESULT:    -6.154      3.129      5.759
 INTER + INTRA:          -9.263
 INTER:                  -8.677
 INTRA:                  -0.586
 UNBOUND:                -0.951
  Name = 5GP
  8 active torsions:
  status: ('A' for Active; 'I' for Inactive)
    1  A    between atoms: P_1  and  O_3
    2  A    between atoms: P_1  and  O_4
    3  A    between atoms: P_1  and  O_5
    4  A    between atoms: O_5  and  C_6
    5  A    between atoms: C_6  and  C_7
    6  A    between atoms: C_9  and  O_10
    7  A    between atoms: C_11  and  O_12
    8  A    between atoms: C_13  and  N_14
                            x       y       z     vdW  Elec       q    Type
                         _______ _______ _______ _____ _____    ______ ____

>  <TORSDO>
F 8

$$$$
