5GP
 OpenBabel09132600403D

 31 33  0  0  1  0  0  0  0  0999 V2000
   24.4450   -3.7670   52.8740 C   0  0  1  0  0  3  0  0  0  0  0  0
   24.0300   -3.3140   51.5990 O   0  0  0  0  0  0  0  0  0  0  0  0
   25.9490   -3.5070   53.0370 C   0  0  2  0  0  3  0  0  0  0  0  0
   26.1910   -2.3890   52.0510 C   0  0  2  0  0  3  0  0  0  0  0  0
   25.1060   -2.6190   51.0000 C   0  0  2  0  0  3  0  0  0  0  0  0
   24.6400   -1.3450   50.4520 N   0  0  0  0  0  0  0  0  0  0  0  0
   23.5760   -0.5960   50.8510 C   0  0  0  0  0  3  0  0  0  0  0  0
   23.4810    0.5960   50.1980 N   0  0  0  0  0  0  0  0  0  0  0  0
   24.5460    0.5680   49.3740 C   0  0  0  0  0  0  0  0  0  0  0  0
   24.9900    1.5260   48.4750 C   0  0  0  0  0  0  0  0  0  0  0  0
   24.3640    2.6080   48.3140 O   0  0  0  0  0  0  0  0  0  0  0  0
   26.1330    1.2640   47.7710 N   0  0  0  0  0  0  0  0  0  0  0  0
   26.8250    0.0880   47.9520 C   0  0  0  0  0  0  0  0  0  0  0  0
   28.0190   -0.1640   47.2120 N   0  0  0  0  0  0  0  0  0  0  0  0
   26.3750   -0.8470   48.8450 N   0  0  0  0  0  0  0  0  0  0  0  0
   25.2380   -0.5810   49.5300 C   0  0  0  0  0  0  0  0  0  0  0  0
   26.4870    1.9710   47.0880 H   0  0  0  0  0  0  0  0  0  0  0  0
   28.5470   -1.0540   47.3480 H   0  0  0  0  0  0  0  0  0  0  0  0
   28.3790    0.5370   46.5270 H   0  0  0  0  0  0  0  0  0  0  0  0
   26.7050   -4.6590   52.7370 O   0  0  0  0  0  0  0  0  0  0  0  0
   26.1620   -5.4590   52.9650 H   0  0  0  0  0  0  0  0  0  0  0  0
   27.4980   -2.3740   51.5220 O   0  0  0  0  0  0  0  0  0  0  0  0
   27.9710   -1.5700   51.8600 H   0  0  0  0  0  0  0  0  0  0  0  0
   23.6270   -3.0510   53.9550 C   0  0  0  0  0  2  0  0  0  0  0  0
   24.3980   -2.9540   55.1290 O   0  0  0  0  0  0  0  0  0  0  0  0
   24.3170   -1.3480   55.7010 P   0  0  0  0  0  0  0  0  0  0  0  0
   24.5480   -1.3210   57.1970 O   0  0  0  0  0  0  0  0  0  0  0  0
   22.8100   -0.6630   55.3390 O   0  0  0  0  0  0  0  0  0  0  0  0
   22.5380   -1.0750   54.4800 H   0  0  0  0  0  0  0  0  0  0  0  0
   25.5230   -0.4380   54.9410 O   0  0  0  0  0  0  0  0  0  0  0  0
   25.7320   -0.9360   54.1120 H   0  0  0  0  0  0  0  0  0  0  0  0
  1  3  1  0  0  0  0
  1 24  1  1  0  0  0
  2  1  1  0  0  0  0
  3 20  1  6  0  0  0
  4 22  1  6  0  0  0
  4  3  1  0  0  0  0
  5  6  1  1  0  0  0
  5  2  1  0  0  0  0
  5  4  1  0  0  0  0
  6  7  1  0  0  0  0
  8  7  2  0  0  0  0
  9 16  2  0  0  0  0
  9  8  1  0  0  0  0
 10  9  1  0  0  0  0
 11 10  2  0  0  0  0
 12 13  1  0  0  0  0
 12 10  1  0  0  0  0
 13 15  2  0  0  0  0
 14 18  1  0  0  0  0
 14 13  1  0  0  0  0
 15 16  1  0  0  0  0
 16  6  1  0  0  0  0
 17 12  1  0  0  0  0
 19 14  1  0  0  0  0
 20 21  1  0  0  0  0
 22 23  1  0  0  0  0
 24 25  1  0  0  0  0
 25 26  1  0  0  0  0
 26 27  2  0  0  0  0
 28 26  1  0  0  0  0
 29 28  1  0  0  0  0
 30 26  1  0  0  0  0
 31 30  1  0  0  0  0
M  END
>  <MODEL>
1

>  <REMARK>
 VINA RESULT:    -6.827      0.000      0.000
 INTER + INTRA:         -10.173
 INTER:                  -9.222
 INTRA:                  -0.951
 UNBOUND:                -0.951
  Name = 5GP
  8 active torsions:
  status: ('A' for Active; 'I' for Inactive)
    1  A    between atoms: P_1  and  O_3
    2  A    between atoms: P_1  and  O_4
    3  A    between atoms: P_1  and  O_5
    4  A    between atoms: O_5  and  C_6
    5  A    between atoms: C_6  and  C_7
    6  A    between atoms: C_9  and  O_10
    7  A    between atoms: C_11  and  O_12
    8  A    between atoms: C_13  and  N_14
                            x       y       z     vdW  Elec       q    Type
                         _______ _______ _______ _____ _____    ______ ____

>  <TORSDO>
F 8

$$$$
