5GP
 OpenBabel09132600403D

 31 33  0  0  1  0  0  0  0  0999 V2000
   24.0730   -1.0180   52.3670 C   0  0  1  0  0  3  0  0  0  0  0  0
   25.3960   -0.6140   52.0690 O   0  0  0  0  0  0  0  0  0  0  0  0
   23.3730   -1.4490   51.0700 C   0  0  2  0  0  3  0  0  0  0  0  0
   24.5390   -1.8060   50.1780 C   0  0  2  0  0  3  0  0  0  0  0  0
   25.6630   -0.9210   50.7150 C   0  0  2  0  0  3  0  0  0  0  0  0
   26.9550   -1.5990   50.5970 N   0  0  0  0  0  0  0  0  0  0  0  0
   27.1960   -2.9300   50.4560 C   0  0  0  0  0  3  0  0  0  0  0  0
   28.5130   -3.2220   50.2640 N   0  0  0  0  0  0  0  0  0  0  0  0
   29.0900   -2.0060   50.2800 C   0  0  0  0  0  0  0  0  0  0  0  0
   30.4230   -1.6610   50.1050 C   0  0  0  0  0  0  0  0  0  0  0  0
   31.3050   -2.5410   49.9220 O   0  0  0  0  0  0  0  0  0  0  0  0
   30.7500   -0.3320   50.1340 N   0  0  0  0  0  0  0  0  0  0  0  0
   29.7870    0.6320   50.3220 C   0  0  0  0  0  0  0  0  0  0  0  0
   30.1490    2.0130   50.3430 N   0  0  0  0  0  0  0  0  0  0  0  0
   28.4760    0.2760   50.4900 N   0  0  0  0  0  0  0  0  0  0  0  0
   28.1650   -1.0420   50.4690 C   0  0  0  0  0  0  0  0  0  0  0  0
   31.7470   -0.0480   50.0050 H   0  0  0  0  0  0  0  0  0  0  0  0
   29.4200    2.7470   50.4840 H   0  0  0  0  0  0  0  0  0  0  0  0
   31.1420    2.3060   50.2160 H   0  0  0  0  0  0  0  0  0  0  0  0
   22.5910   -0.4030   50.5370 O   0  0  0  0  0  0  0  0  0  0  0  0
   22.7750   -0.3390   49.5630 H   0  0  0  0  0  0  0  0  0  0  0  0
   24.2780   -1.6200   48.8060 O   0  0  0  0  0  0  0  0  0  0  0  0
   24.5600   -0.7050   48.5470 H   0  0  0  0  0  0  0  0  0  0  0  0
   24.1120   -2.1570   53.3940 C   0  0  0  0  0  2  0  0  0  0  0  0
   25.3350   -2.1090   54.0910 O   0  0  0  0  0  0  0  0  0  0  0  0
   25.0620   -1.3980   55.6180 P   0  0  0  0  0  0  0  0  0  0  0  0
   25.8600   -0.1180   55.7420 O   0  0  0  0  0  0  0  0  0  0  0  0
   25.4940   -2.4690   56.8580 O   0  0  0  0  0  0  0  0  0  0  0  0
   24.6410   -2.7130   57.2980 H   0  0  0  0  0  0  0  0  0  0  0  0
   23.4160   -1.0360   55.7640 O   0  0  0  0  0  0  0  0  0  0  0  0
   23.0690   -1.6960   56.4160 H   0  0  0  0  0  0  0  0  0  0  0  0
  1 24  1  1  0  0  0
  2  1  1  0  0  0  0
  3 20  1  6  0  0  0
  3  1  1  0  0  0  0
  4 22  1  6  0  0  0
  4  5  1  0  0  0  0
  4  3  1  0  0  0  0
  5  6  1  1  0  0  0
  5  2  1  0  0  0  0
  7  6  1  0  0  0  0
  8  9  1  0  0  0  0
  8  7  2  0  0  0  0
  9 16  2  0  0  0  0
 10 12  1  0  0  0  0
 10  9  1  0  0  0  0
 11 10  2  0  0  0  0
 12 13  1  0  0  0  0
 13 14  1  0  0  0  0
 13 15  2  0  0  0  0
 14 18  1  0  0  0  0
 16 15  1  0  0  0  0
 16  6  1  0  0  0  0
 17 12  1  0  0  0  0
 19 14  1  0  0  0  0
 21 20  1  0  0  0  0
 23 22  1  0  0  0  0
 24 25  1  0  0  0  0
 25 26  1  0  0  0  0
 26 27  2  0  0  0  0
 26 30  1  0  0  0  0
 26 28  1  0  0  0  0
 28 29  1  0  0  0  0
 30 31  1  0  0  0  0
M  END
>  <MODEL>
9

>  <REMARK>
 VINA RESULT:    -6.394      2.749      4.189
 INTER + INTRA:          -9.587
 INTER:                  -8.765
 INTRA:                  -0.822
 UNBOUND:                -0.951
  Name = 5GP
  8 active torsions:
  status: ('A' for Active; 'I' for Inactive)
    1  A    between atoms: P_1  and  O_3
    2  A    between atoms: P_1  and  O_4
    3  A    between atoms: P_1  and  O_5
    4  A    between atoms: O_5  and  C_6
    5  A    between atoms: C_6  and  C_7
    6  A    between atoms: C_9  and  O_10
    7  A    between atoms: C_11  and  O_12
    8  A    between atoms: C_13  and  N_14
                            x       y       z     vdW  Elec       q    Type
                         _______ _______ _______ _____ _____    ______ ____

>  <TORSDO>
F 8

$$$$
