5GP
 OpenBabel09132600403D

 31 33  0  0  1  0  0  0  0  0999 V2000
   30.7960   -2.4940   49.0640 C   0  0  1  0  0  3  0  0  0  0  0  0
   29.4070   -2.6880   48.8750 O   0  0  0  0  0  0  0  0  0  0  0  0
   31.0990   -0.9890   49.0690 C   0  0  2  0  0  3  0  0  0  0  0  0
   29.7660   -0.3930   49.4550 C   0  0  2  0  0  3  0  0  0  0  0  0
   28.7670   -1.4290   48.9400 C   0  0  2  0  0  3  0  0  0  0  0  0
   27.5990   -1.5020   49.8180 N   0  0  0  0  0  0  0  0  0  0  0  0
   27.4260   -2.2730   50.9250 C   0  0  0  0  0  3  0  0  0  0  0  0
   26.2590   -2.0210   51.5810 N   0  0  0  0  0  0  0  0  0  0  0  0
   25.7070   -1.0430   50.8370 C   0  0  0  0  0  0  0  0  0  0  0  0
   24.5170   -0.3560   51.0270 C   0  0  0  0  0  0  0  0  0  0  0  0
   23.7560   -0.6260   51.9940 O   0  0  0  0  0  0  0  0  0  0  0  0
   24.1960    0.6290   50.1340 N   0  0  0  0  0  0  0  0  0  0  0  0
   25.0310    0.9350   49.0830 C   0  0  0  0  0  0  0  0  0  0  0  0
   24.6800    1.9710   48.1660 N   0  0  0  0  0  0  0  0  0  0  0  0
   26.2040    0.2500   48.9110 N   0  0  0  0  0  0  0  0  0  0  0  0
   26.5070   -0.7290   49.7960 C   0  0  0  0  0  0  0  0  0  0  0  0
   23.3040    1.1600   50.2570 H   0  0  0  0  0  0  0  0  0  0  0  0
   25.3120    2.2060   47.3690 H   0  0  0  0  0  0  0  0  0  0  0  0
   23.7910    2.5060   48.2800 H   0  0  0  0  0  0  0  0  0  0  0  0
   31.5370   -0.5490   47.8030 O   0  0  0  0  0  0  0  0  0  0  0  0
   30.8120   -0.0120   47.3900 H   0  0  0  0  0  0  0  0  0  0  0  0
   29.5560    0.9010   48.9400 O   0  0  0  0  0  0  0  0  0  0  0  0
   28.8530    0.8580   48.2420 H   0  0  0  0  0  0  0  0  0  0  0  0
   31.2250   -3.1620   50.3770 C   0  0  0  0  0  2  0  0  0  0  0  0
   32.6250   -3.0800   50.5010 O   0  0  0  0  0  0  0  0  0  0  0  0
   33.2230   -4.6160   50.9410 P   0  0  0  0  0  0  0  0  0  0  0  0
   32.0730   -5.5690   51.1800 O   0  0  0  0  0  0  0  0  0  0  0  0
   34.1790   -4.5050   52.3360 O   0  0  0  0  0  0  0  0  0  0  0  0
   34.8540   -5.2240   52.2450 H   0  0  0  0  0  0  0  0  0  0  0  0
   34.1770   -5.2110   49.6770 O   0  0  0  0  0  0  0  0  0  0  0  0
   33.6870   -6.0040   49.3420 H   0  0  0  0  0  0  0  0  0  0  0  0
  1  3  1  0  0  0  0
  1 24  1  1  0  0  0
  2  5  1  0  0  0  0
  2  1  1  0  0  0  0
  3 20  1  6  0  0  0
  3  4  1  0  0  0  0
  4 22  1  6  0  0  0
  5  4  1  0  0  0  0
  5  6  1  1  0  0  0
  6  7  1  0  0  0  0
  7  8  2  0  0  0  0
  9 10  1  0  0  0  0
  9  8  1  0  0  0  0
 10 11  2  0  0  0  0
 12 17  1  0  0  0  0
 12 10  1  0  0  0  0
 13 12  1  0  0  0  0
 14 19  1  0  0  0  0
 14 13  1  0  0  0  0
 15 13  2  0  0  0  0
 15 16  1  0  0  0  0
 16  6  1  0  0  0  0
 16  9  2  0  0  0  0
 18 14  1  0  0  0  0
 21 20  1  0  0  0  0
 23 22  1  0  0  0  0
 24 25  1  0  0  0  0
 25 26  1  0  0  0  0
 26 27  2  0  0  0  0
 26 28  1  0  0  0  0
 29 28  1  0  0  0  0
 30 26  1  0  0  0  0
 31 30  1  0  0  0  0
M  END
>  <MODEL>
15

>  <REMARK>
 VINA RESULT:    -6.120      4.388      6.617
 INTER + INTRA:          -9.217
 INTER:                  -8.464
 INTRA:                  -0.753
 UNBOUND:                -0.951
  Name = 5GP
  8 active torsions:
  status: ('A' for Active; 'I' for Inactive)
    1  A    between atoms: P_1  and  O_3
    2  A    between atoms: P_1  and  O_4
    3  A    between atoms: P_1  and  O_5
    4  A    between atoms: O_5  and  C_6
    5  A    between atoms: C_6  and  C_7
    6  A    between atoms: C_9  and  O_10
    7  A    between atoms: C_11  and  O_12
    8  A    between atoms: C_13  and  N_14
                            x       y       z     vdW  Elec       q    Type
                         _______ _______ _______ _____ _____    ______ ____

>  <TORSDO>
F 8

$$$$
