5GP
 OpenBabel09132600403D

 31 33  0  0  1  0  0  0  0  0999 V2000
   23.8410   -2.4010   48.4110 C   0  0  1  0  0  3  0  0  0  0  0  0
   24.3800   -2.9510   49.5980 O   0  0  0  0  0  0  0  0  0  0  0  0
   22.3710   -2.0270   48.6510 C   0  0  2  0  0  3  0  0  0  0  0  0
   22.3220   -1.8620   50.1520 C   0  0  2  0  0  3  0  0  0  0  0  0
   23.4320   -2.7940   50.6350 C   0  0  2  0  0  3  0  0  0  0  0  0
   24.0770   -2.2520   51.8310 N   0  0  0  0  0  0  0  0  0  0  0  0
   25.1920   -1.4770   51.9070 C   0  0  0  0  0  3  0  0  0  0  0  0
   25.4670   -1.0510   53.1710 N   0  0  0  0  0  0  0  0  0  0  0  0
   24.4620   -1.5870   53.8900 C   0  0  0  0  0  0  0  0  0  0  0  0
   24.1910   -1.4760   55.2450 C   0  0  0  0  0  0  0  0  0  0  0  0
   24.9470   -0.8190   56.0100 O   0  0  0  0  0  0  0  0  0  0  0  0
   23.0730   -2.1000   55.7280 N   0  0  0  0  0  0  0  0  0  0  0  0
   22.2390   -2.8090   54.8950 C   0  0  0  0  0  0  0  0  0  0  0  0
   21.0740   -3.4470   55.4190 N   0  0  0  0  0  0  0  0  0  0  0  0
   22.5180   -2.9070   53.5580 N   0  0  0  0  0  0  0  0  0  0  0  0
   23.6330   -2.2940   53.0930 C   0  0  0  0  0  0  0  0  0  0  0  0
   22.8490   -2.0300   56.7470 H   0  0  0  0  0  0  0  0  0  0  0  0
   20.4390   -3.9840   54.7890 H   0  0  0  0  0  0  0  0  0  0  0  0
   20.8430   -3.3840   56.4340 H   0  0  0  0  0  0  0  0  0  0  0  0
   21.5020   -3.0400   48.1950 O   0  0  0  0  0  0  0  0  0  0  0  0
   20.5700   -2.7760   48.4140 H   0  0  0  0  0  0  0  0  0  0  0  0
   21.0590   -2.1460   50.7100 O   0  0  0  0  0  0  0  0  0  0  0  0
   20.9930   -1.7010   51.5950 H   0  0  0  0  0  0  0  0  0  0  0  0
   24.6740   -1.1820   47.9950 C   0  0  0  0  0  2  0  0  0  0  0  0
   23.8670   -0.0300   48.0530 O   0  0  0  0  0  0  0  0  0  0  0  0
   24.6850    1.1630   48.9580 P   0  0  0  0  0  0  0  0  0  0  0  0
   24.5930    2.4990   48.2540 O   0  0  0  0  0  0  0  0  0  0  0  0
   26.3100    0.7360   49.1730 O   0  0  0  0  0  0  0  0  0  0  0  0
   26.5840    1.1750   50.0180 H   0  0  0  0  0  0  0  0  0  0  0  0
   23.9530    1.2910   50.4780 O   0  0  0  0  0  0  0  0  0  0  0  0
   24.5150    0.7370   51.0770 H   0  0  0  0  0  0  0  0  0  0  0  0
  1 24  1  1  0  0  0
  1  3  1  0  0  0  0
  1  2  1  0  0  0  0
  2  5  1  0  0  0  0
  3 20  1  1  0  0  0
  3  4  1  0  0  0  0
  4  5  1  0  0  0  0
  4 22  1  1  0  0  0
  5  6  1  1  0  0  0
  6  7  1  0  0  0  0
  6 16  1  0  0  0  0
  7  8  2  0  0  0  0
  8  9  1  0  0  0  0
  9 10  1  0  0  0  0
 10 12  1  0  0  0  0
 10 11  2  0  0  0  0
 12 17  1  0  0  0  0
 13 14  1  0  0  0  0
 13 12  1  0  0  0  0
 14 19  1  0  0  0  0
 15 13  2  0  0  0  0
 16 15  1  0  0  0  0
 16  9  2  0  0  0  0
 18 14  1  0  0  0  0
 20 21  1  0  0  0  0
 22 23  1  0  0  0  0
 24 25  1  0  0  0  0
 25 26  1  0  0  0  0
 26 28  1  0  0  0  0
 26 30  1  0  0  0  0
 27 26  2  0  0  0  0
 28 29  1  0  0  0  0
 30 31  1  0  0  0  0
M  END
>  <MODEL>
13

>  <REMARK>
 VINA RESULT:    -6.179      3.209      6.521
 INTER + INTRA:          -9.296
 INTER:                  -8.302
 INTRA:                  -0.994
 UNBOUND:                -0.951
  Name = 5GP
  8 active torsions:
  status: ('A' for Active; 'I' for Inactive)
    1  A    between atoms: P_1  and  O_3
    2  A    between atoms: P_1  and  O_4
    3  A    between atoms: P_1  and  O_5
    4  A    between atoms: O_5  and  C_6
    5  A    between atoms: C_6  and  C_7
    6  A    between atoms: C_9  and  O_10
    7  A    between atoms: C_11  and  O_12
    8  A    between atoms: C_13  and  N_14
                            x       y       z     vdW  Elec       q    Type
                         _______ _______ _______ _____ _____    ______ ____

>  <TORSDO>
F 8

$$$$
