5GP
 OpenBabel09132600403D

 31 33  0  0  1  0  0  0  0  0999 V2000
   30.1770   -1.4070   50.6140 C   0  0  1  0  0  3  0  0  0  0  0  0
   30.5420   -0.0500   50.4470 O   0  0  0  0  0  0  0  0  0  0  0  0
   28.6630   -1.5510   50.4050 C   0  0  2  0  0  3  0  0  0  0  0  0
   28.3380   -0.3410   49.5610 C   0  0  2  0  0  3  0  0  0  0  0  0
   29.4170    0.6600   49.9700 C   0  0  2  0  0  3  0  0  0  0  0  0
   29.7970    1.5020   48.8340 N   0  0  0  0  0  0  0  0  0  0  0  0
   29.5990    1.2660   47.5100 C   0  0  0  0  0  3  0  0  0  0  0  0
   29.9780    2.3060   46.7140 N   0  0  0  0  0  0  0  0  0  0  0  0
   30.4140    3.2160   47.6060 C   0  0  0  0  0  0  0  0  0  0  0  0
   30.9010    4.4970   47.3910 C   0  0  0  0  0  0  0  0  0  0  0  0
   31.0140    4.9640   46.2260 O   0  0  0  0  0  0  0  0  0  0  0  0
   31.2520    5.2410   48.4840 N   0  0  0  0  0  0  0  0  0  0  0  0
   31.1200    4.7380   49.7580 C   0  0  0  0  0  0  0  0  0  0  0  0
   31.4860    5.5330   50.8850 N   0  0  0  0  0  0  0  0  0  0  0  0
   30.6350    3.4730   49.9540 N   0  0  0  0  0  0  0  0  0  0  0  0
   30.2990    2.7420   48.8640 C   0  0  0  0  0  0  0  0  0  0  0  0
   31.6220    6.2090   48.3460 H   0  0  0  0  0  0  0  0  0  0  0  0
   31.3860    5.1550   51.8520 H   0  0  0  0  0  0  0  0  0  0  0  0
   31.8580    6.5000   50.7570 H   0  0  0  0  0  0  0  0  0  0  0  0
   27.9720   -1.5480   51.6340 O   0  0  0  0  0  0  0  0  0  0  0  0
   28.0160   -2.4620   52.0200 H   0  0  0  0  0  0  0  0  0  0  0  0
   27.0240    0.1360   49.7400 O   0  0  0  0  0  0  0  0  0  0  0  0
   26.4540   -0.2120   49.0060 H   0  0  0  0  0  0  0  0  0  0  0  0
   30.9700   -2.2690   49.6230 C   0  0  0  0  0  2  0  0  0  0  0  0
   32.1510   -2.7170   50.2440 O   0  0  0  0  0  0  0  0  0  0  0  0
   31.9590   -4.3630   50.6530 P   0  0  0  0  0  0  0  0  0  0  0  0
   32.9390   -4.7420   51.7430 O   0  0  0  0  0  0  0  0  0  0  0  0
   32.2000   -5.3460   49.2940 O   0  0  0  0  0  0  0  0  0  0  0  0
   31.2910   -5.6080   49.0000 H   0  0  0  0  0  0  0  0  0  0  0  0
   30.3840   -4.6020   51.2230 O   0  0  0  0  0  0  0  0  0  0  0  0
   30.4570   -4.5260   52.2080 H   0  0  0  0  0  0  0  0  0  0  0  0
  1 24  1  6  0  0  0
  2  1  1  0  0  0  0
  3  1  1  0  0  0  0
  3 20  1  1  0  0  0
  4 22  1  1  0  0  0
  4  5  1  0  0  0  0
  4  3  1  0  0  0  0
  5  6  1  6  0  0  0
  5  2  1  0  0  0  0
  6 16  1  0  0  0  0
  7  6  1  0  0  0  0
  8  7  2  0  0  0  0
  8  9  1  0  0  0  0
  9 16  2  0  0  0  0
 10  9  1  0  0  0  0
 10 12  1  0  0  0  0
 11 10  2  0  0  0  0
 12 13  1  0  0  0  0
 13 15  2  0  0  0  0
 13 14  1  0  0  0  0
 14 18  1  0  0  0  0
 16 15  1  0  0  0  0
 17 12  1  0  0  0  0
 19 14  1  0  0  0  0
 20 21  1  0  0  0  0
 23 22  1  0  0  0  0
 24 25  1  0  0  0  0
 25 26  1  0  0  0  0
 26 30  1  0  0  0  0
 26 27  2  0  0  0  0
 28 26  1  0  0  0  0
 29 28  1  0  0  0  0
 30 31  1  0  0  0  0
M  END
>  <MODEL>
11

>  <REMARK>
 VINA RESULT:    -6.279      5.113      7.232
 INTER + INTRA:          -9.431
 INTER:                  -8.859
 INTRA:                  -0.572
 UNBOUND:                -0.951
  Name = 5GP
  8 active torsions:
  status: ('A' for Active; 'I' for Inactive)
    1  A    between atoms: P_1  and  O_3
    2  A    between atoms: P_1  and  O_4
    3  A    between atoms: P_1  and  O_5
    4  A    between atoms: O_5  and  C_6
    5  A    between atoms: C_6  and  C_7
    6  A    between atoms: C_9  and  O_10
    7  A    between atoms: C_11  and  O_12
    8  A    between atoms: C_13  and  N_14
                            x       y       z     vdW  Elec       q    Type
                         _______ _______ _______ _____ _____    ______ ____

>  <TORSDO>
F 8

$$$$
