5GP
 OpenBabel09132600403D

 31 33  0  0  1  0  0  0  0  0999 V2000
   26.2570   -0.8610   49.2480 C   0  0  1  0  0  3  0  0  0  0  0  0
   26.1770   -1.8450   50.2610 O   0  0  0  0  0  0  0  0  0  0  0  0
   24.9490   -0.0570   49.2210 C   0  0  2  0  0  3  0  0  0  0  0  0
   24.4150   -0.2650   50.6190 C   0  0  2  0  0  3  0  0  0  0  0  0
   24.9980   -1.6230   51.0090 C   0  0  2  0  0  3  0  0  0  0  0  0
   25.2940   -1.6650   52.4410 N   0  0  0  0  0  0  0  0  0  0  0  0
   26.4500   -1.3260   53.0710 C   0  0  0  0  0  3  0  0  0  0  0  0
   26.3590   -1.3790   54.4300 N   0  0  0  0  0  0  0  0  0  0  0  0
   25.0820   -1.7580   54.6260 C   0  0  0  0  0  0  0  0  0  0  0  0
   24.3940   -1.9530   55.8150 C   0  0  0  0  0  0  0  0  0  0  0  0
   24.9630   -1.8040   56.9290 O   0  0  0  0  0  0  0  0  0  0  0  0
   23.0750   -2.3100   55.7400 N   0  0  0  0  0  0  0  0  0  0  0  0
   22.4480   -2.4630   54.5250 C   0  0  0  0  0  0  0  0  0  0  0  0
   21.0700   -2.8300   54.4700 N   0  0  0  0  0  0  0  0  0  0  0  0
   23.1400   -2.2630   53.3610 N   0  0  0  0  0  0  0  0  0  0  0  0
   24.4470   -1.9200   53.4460 C   0  0  0  0  0  0  0  0  0  0  0  0
   22.5360   -2.4640   56.6230 H   0  0  0  0  0  0  0  0  0  0  0  0
   20.5910   -2.9460   53.5500 H   0  0  0  0  0  0  0  0  0  0  0  0
   20.5240   -2.9870   55.3460 H   0  0  0  0  0  0  0  0  0  0  0  0
   24.0680   -0.5420   48.2330 O   0  0  0  0  0  0  0  0  0  0  0  0
   23.2600    0.0360   48.2220 H   0  0  0  0  0  0  0  0  0  0  0  0
   23.0090   -0.2070   50.7010 O   0  0  0  0  0  0  0  0  0  0  0  0
   22.7230   -0.5930   51.5690 H   0  0  0  0  0  0  0  0  0  0  0  0
   27.4690    0.0400   49.5130 C   0  0  0  0  0  2  0  0  0  0  0  0
   27.6740    0.8780   48.4010 O   0  0  0  0  0  0  0  0  0  0  0  0
   28.7410    2.1310   48.8530 P   0  0  0  0  0  0  0  0  0  0  0  0
   29.8390    2.2710   47.8210 O   0  0  0  0  0  0  0  0  0  0  0  0
   29.4160    1.8170   50.3750 O   0  0  0  0  0  0  0  0  0  0  0  0
   28.6450    1.6230   50.9650 H   0  0  0  0  0  0  0  0  0  0  0  0
   27.8740    3.5810   48.9330 O   0  0  0  0  0  0  0  0  0  0  0  0
   28.4020    4.2220   48.3930 H   0  0  0  0  0  0  0  0  0  0  0  0
  1 24  1  1  0  0  0
  1  2  1  0  0  0  0
  2  5  1  0  0  0  0
  3 20  1  6  0  0  0
  3  1  1  0  0  0  0
  3  4  1  0  0  0  0
  4 22  1  6  0  0  0
  4  5  1  0  0  0  0
  5  6  1  1  0  0  0
  6  7  1  0  0  0  0
  6 16  1  0  0  0  0
  7  8  2  0  0  0  0
  8  9  1  0  0  0  0
  9 10  1  0  0  0  0
 10 11  2  0  0  0  0
 12 10  1  0  0  0  0
 12 17  1  0  0  0  0
 13 12  1  0  0  0  0
 14 13  1  0  0  0  0
 14 19  1  0  0  0  0
 15 16  1  0  0  0  0
 15 13  2  0  0  0  0
 16  9  2  0  0  0  0
 18 14  1  0  0  0  0
 21 20  1  0  0  0  0
 22 23  1  0  0  0  0
 25 26  1  0  0  0  0
 25 24  1  0  0  0  0
 26 30  1  0  0  0  0
 26 28  1  0  0  0  0
 27 26  2  0  0  0  0
 28 29  1  0  0  0  0
 31 30  1  0  0  0  0
M  END
>  <MODEL>
7

>  <REMARK>
 VINA RESULT:    -6.508      3.561      6.925
 INTER + INTRA:          -9.741
 INTER:                  -8.963
 INTRA:                  -0.778
 UNBOUND:                -0.951
  Name = 5GP
  8 active torsions:
  status: ('A' for Active; 'I' for Inactive)
    1  A    between atoms: P_1  and  O_3
    2  A    between atoms: P_1  and  O_4
    3  A    between atoms: P_1  and  O_5
    4  A    between atoms: O_5  and  C_6
    5  A    between atoms: C_6  and  C_7
    6  A    between atoms: C_9  and  O_10
    7  A    between atoms: C_11  and  O_12
    8  A    between atoms: C_13  and  N_14
                            x       y       z     vdW  Elec       q    Type
                         _______ _______ _______ _____ _____    ______ ____

>  <TORSDO>
F 8

$$$$
