5GP
 OpenBabel09132600403D

 31 33  0  0  1  0  0  0  0  0999 V2000
   34.3390   -3.5440   49.3900 C   0  0  1  0  0  3  0  0  0  0  0  0
   33.0500   -2.9650   49.4630 O   0  0  0  0  0  0  0  0  0  0  0  0
   34.6510   -4.2490   50.7180 C   0  0  2  0  0  3  0  0  0  0  0  0
   33.2710   -4.5160   51.2730 C   0  0  2  0  0  3  0  0  0  0  0  0
   32.4340   -3.3940   50.6610 C   0  0  2  0  0  3  0  0  0  0  0  0
   31.0710   -3.8540   50.3910 N   0  0  0  0  0  0  0  0  0  0  0  0
   30.6250   -5.1330   50.2660 C   0  0  0  0  0  3  0  0  0  0  0  0
   29.2730   -5.2200   50.1210 N   0  0  0  0  0  0  0  0  0  0  0  0
   28.8860   -3.9310   50.1730 C   0  0  0  0  0  0  0  0  0  0  0  0
   27.6110   -3.3910   50.1080 C   0  0  0  0  0  0  0  0  0  0  0  0
   26.5980   -4.1260   49.9570 O   0  0  0  0  0  0  0  0  0  0  0  0
   27.4830   -2.0330   50.2190 N   0  0  0  0  0  0  0  0  0  0  0  0
   28.5850   -1.2280   50.3960 C   0  0  0  0  0  0  0  0  0  0  0  0
   28.4300    0.1860   50.5150 N   0  0  0  0  0  0  0  0  0  0  0  0
   29.8380   -1.7770   50.4610 N   0  0  0  0  0  0  0  0  0  0  0  0
   29.9530   -3.1210   50.3400 C   0  0  0  0  0  0  0  0  0  0  0  0
   26.5310   -1.6030   50.1730 H   0  0  0  0  0  0  0  0  0  0  0  0
   29.2630    0.7980   50.6510 H   0  0  0  0  0  0  0  0  0  0  0  0
   27.4830    0.6230   50.4690 H   0  0  0  0  0  0  0  0  0  0  0  0
   35.4200   -3.4270   51.5680 O   0  0  0  0  0  0  0  0  0  0  0  0
   34.9970   -3.4230   52.4670 H   0  0  0  0  0  0  0  0  0  0  0  0
   33.2250   -4.5550   52.6800 O   0  0  0  0  0  0  0  0  0  0  0  0
   34.1360   -4.7450   53.0250 H   0  0  0  0  0  0  0  0  0  0  0  0
   34.3890   -4.5190   48.2070 C   0  0  0  0  0  2  0  0  0  0  0  0
   35.5310   -5.3340   48.3280 O   0  0  0  0  0  0  0  0  0  0  0  0
   36.5190   -5.0910   46.9580 P   0  0  0  0  0  0  0  0  0  0  0  0
   35.7970   -4.2270   45.9470 O   0  0  0  0  0  0  0  0  0  0  0  0
   36.9350   -6.5750   46.2540 O   0  0  0  0  0  0  0  0  0  0  0  0
   36.8700   -7.2370   46.9880 H   0  0  0  0  0  0  0  0  0  0  0  0
   37.9360   -4.3040   47.4410 O   0  0  0  0  0  0  0  0  0  0  0  0
   38.5390   -5.0300   47.7420 H   0  0  0  0  0  0  0  0  0  0  0  0
  1 24  1  6  0  0  0
  1  2  1  0  0  0  0
  1  3  1  0  0  0  0
  2  5  1  0  0  0  0
  3  4  1  0  0  0  0
  3 20  1  1  0  0  0
  4 22  1  1  0  0  0
  5  6  1  6  0  0  0
  5  4  1  0  0  0  0
  7  6  1  0  0  0  0
  8  9  1  0  0  0  0
  8  7  2  0  0  0  0
  9 16  2  0  0  0  0
 10  9  1  0  0  0  0
 10 12  1  0  0  0  0
 11 10  2  0  0  0  0
 12 13  1  0  0  0  0
 13 15  2  0  0  0  0
 13 14  1  0  0  0  0
 14 18  1  0  0  0  0
 16  6  1  0  0  0  0
 16 15  1  0  0  0  0
 17 12  1  0  0  0  0
 19 14  1  0  0  0  0
 20 21  1  0  0  0  0
 22 23  1  0  0  0  0
 24 25  1  0  0  0  0
 26 30  1  0  0  0  0
 26 25  1  0  0  0  0
 27 26  2  0  0  0  0
 28 26  1  0  0  0  0
 28 29  1  0  0  0  0
 30 31  1  0  0  0  0
M  END
>  <MODEL>
19

>  <REMARK>
 VINA RESULT:    -5.972      7.435      9.732
 INTER + INTRA:          -9.018
 INTER:                  -8.326
 INTRA:                  -0.691
 UNBOUND:                -0.951
  Name = 5GP
  8 active torsions:
  status: ('A' for Active; 'I' for Inactive)
    1  A    between atoms: P_1  and  O_3
    2  A    between atoms: P_1  and  O_4
    3  A    between atoms: P_1  and  O_5
    4  A    between atoms: O_5  and  C_6
    5  A    between atoms: C_6  and  C_7
    6  A    between atoms: C_9  and  O_10
    7  A    between atoms: C_11  and  O_12
    8  A    between atoms: C_13  and  N_14
                            x       y       z     vdW  Elec       q    Type
                         _______ _______ _______ _____ _____    ______ ____

>  <TORSDO>
F 8

$$$$
