5GP
 OpenBabel09132600403D

 31 33  0  0  1  0  0  0  0  0999 V2000
   32.4690   -4.7410   49.7010 C   0  0  1  0  0  3  0  0  0  0  0  0
   33.1530   -5.2760   48.5840 O   0  0  0  0  0  0  0  0  0  0  0  0
   33.4720   -4.0070   50.6030 C   0  0  2  0  0  3  0  0  0  0  0  0
   34.5900   -3.6800   49.6420 C   0  0  2  0  0  3  0  0  0  0  0  0
   34.4820   -4.7940   48.6000 C   0  0  2  0  0  3  0  0  0  0  0  0
   34.8550   -4.2980   47.2750 N   0  0  0  0  0  0  0  0  0  0  0  0
   34.3910   -3.1950   46.6280 C   0  0  0  0  0  3  0  0  0  0  0  0
   35.0260   -2.9560   45.4470 N   0  0  0  0  0  0  0  0  0  0  0  0
   35.9230   -3.9590   45.3850 C   0  0  0  0  0  0  0  0  0  0  0  0
   36.8790   -4.2270   44.4170 C   0  0  0  0  0  0  0  0  0  0  0  0
   36.9930   -3.5010   43.3930 O   0  0  0  0  0  0  0  0  0  0  0  0
   37.7010   -5.3040   44.6080 N   0  0  0  0  0  0  0  0  0  0  0  0
   37.5880   -6.0930   45.7300 C   0  0  0  0  0  0  0  0  0  0  0  0
   38.4590   -7.2090   45.9140 N   0  0  0  0  0  0  0  0  0  0  0  0
   36.6410   -5.8140   46.6790 N   0  0  0  0  0  0  0  0  0  0  0  0
   35.8270   -4.7510   46.4740 C   0  0  0  0  0  0  0  0  0  0  0  0
   38.4290   -5.5260   43.8920 H   0  0  0  0  0  0  0  0  0  0  0  0
   38.3760   -7.8080   46.7640 H   0  0  0  0  0  0  0  0  0  0  0  0
   39.1880   -7.4390   45.2030 H   0  0  0  0  0  0  0  0  0  0  0  0
   33.9010   -4.8280   51.6660 O   0  0  0  0  0  0  0  0  0  0  0  0
   33.3850   -4.5840   52.4790 H   0  0  0  0  0  0  0  0  0  0  0  0
   35.8570   -3.5990   50.2550 O   0  0  0  0  0  0  0  0  0  0  0  0
   36.0660   -4.4740   50.6740 H   0  0  0  0  0  0  0  0  0  0  0  0
   31.3590   -3.8030   49.2100 C   0  0  0  0  0  2  0  0  0  0  0  0
   31.1500   -2.7930   50.1690 O   0  0  0  0  0  0  0  0  0  0  0  0
   30.6550   -1.3730   49.3640 P   0  0  0  0  0  0  0  0  0  0  0  0
   29.2380   -1.5330   48.8570 O   0  0  0  0  0  0  0  0  0  0  0  0
   31.6940   -1.0290   48.0700 O   0  0  0  0  0  0  0  0  0  0  0  0
   31.9540   -0.0810   48.1920 H   0  0  0  0  0  0  0  0  0  0  0  0
   30.7050   -0.0820   50.4560 O   0  0  0  0  0  0  0  0  0  0  0  0
   30.2560    0.6650   49.9860 H   0  0  0  0  0  0  0  0  0  0  0  0
  1 24  1  6  0  0  0
  1  3  1  0  0  0  0
  2  5  1  0  0  0  0
  2  1  1  0  0  0  0
  3 20  1  1  0  0  0
  4 22  1  1  0  0  0
  4  3  1  0  0  0  0
  5  6  1  6  0  0  0
  5  4  1  0  0  0  0
  7  6  1  0  0  0  0
  8  7  2  0  0  0  0
  9  8  1  0  0  0  0
  9 16  2  0  0  0  0
 10 12  1  0  0  0  0
 10  9  1  0  0  0  0
 11 10  2  0  0  0  0
 12 13  1  0  0  0  0
 13 14  1  0  0  0  0
 13 15  2  0  0  0  0
 14 18  1  0  0  0  0
 16 15  1  0  0  0  0
 16  6  1  0  0  0  0
 17 12  1  0  0  0  0
 19 14  1  0  0  0  0
 20 21  1  0  0  0  0
 22 23  1  0  0  0  0
 24 25  1  0  0  0  0
 26 25  1  0  0  0  0
 26 30  1  0  0  0  0
 27 26  2  0  0  0  0
 28 29  1  0  0  0  0
 28 26  1  0  0  0  0
 31 30  1  0  0  0  0
M  END
>  <MODEL>
5

>  <REMARK>
 VINA RESULT:    -6.544      8.844     10.862
 INTER + INTRA:          -9.790
 INTER:                  -9.017
 INTRA:                  -0.773
 UNBOUND:                -0.951
  Name = 5GP
  8 active torsions:
  status: ('A' for Active; 'I' for Inactive)
    1  A    between atoms: P_1  and  O_3
    2  A    between atoms: P_1  and  O_4
    3  A    between atoms: P_1  and  O_5
    4  A    between atoms: O_5  and  C_6
    5  A    between atoms: C_6  and  C_7
    6  A    between atoms: C_9  and  O_10
    7  A    between atoms: C_11  and  O_12
    8  A    between atoms: C_13  and  N_14
                            x       y       z     vdW  Elec       q    Type
                         _______ _______ _______ _____ _____    ______ ____

>  <TORSDO>
F 8

$$$$
