5GP
 OpenBabel09132600403D

 31 33  0  0  1  0  0  0  0  0999 V2000
   24.5540   -3.5510   54.8570 C   0  0  1  0  0  3  0  0  0  0  0  0
   25.6000   -3.3960   53.9160 O   0  0  0  0  0  0  0  0  0  0  0  0
   24.4640   -2.2860   55.7230 C   0  0  2  0  0  3  0  0  0  0  0  0
   25.1040   -1.2430   54.8380 C   0  0  2  0  0  3  0  0  0  0  0  0
   26.0710   -2.0640   53.9860 C   0  0  2  0  0  3  0  0  0  0  0  0
   26.1830   -1.4980   52.6420 N   0  0  0  0  0  0  0  0  0  0  0  0
   27.3060   -1.0870   51.9940 C   0  0  0  0  0  3  0  0  0  0  0  0
   27.0760   -0.7070   50.7050 N   0  0  0  0  0  0  0  0  0  0  0  0
   25.7520   -0.9100   50.5690 C   0  0  0  0  0  0  0  0  0  0  0  0
   24.9420   -0.7260   49.4580 C   0  0  0  0  0  0  0  0  0  0  0  0
   25.4120   -0.2860   48.3750 O   0  0  0  0  0  0  0  0  0  0  0  0
   23.6160   -1.0400   49.5730 N   0  0  0  0  0  0  0  0  0  0  0  0
   23.1010   -1.5300   50.7510 C   0  0  0  0  0  0  0  0  0  0  0  0
   21.7150   -1.8580   50.8480 N   0  0  0  0  0  0  0  0  0  0  0  0
   23.9140   -1.7100   51.8380 N   0  0  0  0  0  0  0  0  0  0  0  0
   25.2230   -1.3860   51.7160 C   0  0  0  0  0  0  0  0  0  0  0  0
   22.9860   -0.9090   48.7490 H   0  0  0  0  0  0  0  0  0  0  0  0
   21.3220   -2.2310   51.7390 H   0  0  0  0  0  0  0  0  0  0  0  0
   21.0790   -1.7290   50.0300 H   0  0  0  0  0  0  0  0  0  0  0  0
   25.1510   -2.4500   56.9430 O   0  0  0  0  0  0  0  0  0  0  0  0
   26.0890   -2.1470   56.8180 H   0  0  0  0  0  0  0  0  0  0  0  0
   25.7240   -0.1990   55.5530 O   0  0  0  0  0  0  0  0  0  0  0  0
   26.4730    0.1600   55.0100 H   0  0  0  0  0  0  0  0  0  0  0  0
   23.2410   -3.8220   54.1120 C   0  0  0  0  0  2  0  0  0  0  0  0
   22.2350   -2.9850   54.6310 O   0  0  0  0  0  0  0  0  0  0  0  0
   20.7160   -3.6830   54.2870 P   0  0  0  0  0  0  0  0  0  0  0  0
   20.4690   -3.6710   52.7940 O   0  0  0  0  0  0  0  0  0  0  0  0
   19.4800   -2.8400   55.0820 O   0  0  0  0  0  0  0  0  0  0  0  0
   18.6430   -3.1260   54.6350 H   0  0  0  0  0  0  0  0  0  0  0  0
   20.7180   -5.2840   54.8320 O   0  0  0  0  0  0  0  0  0  0  0  0
   20.0310   -5.7390   54.2810 H   0  0  0  0  0  0  0  0  0  0  0  0
  1 24  1  6  0  0  0
  1  3  1  0  0  0  0
  2  5  1  0  0  0  0
  2  1  1  0  0  0  0
  3 20  1  1  0  0  0
  4 22  1  1  0  0  0
  4  3  1  0  0  0  0
  5  6  1  6  0  0  0
  5  4  1  0  0  0  0
  7  6  1  0  0  0  0
  8  7  2  0  0  0  0
  9  8  1  0  0  0  0
  9 16  2  0  0  0  0
 10 12  1  0  0  0  0
 10  9  1  0  0  0  0
 11 10  2  0  0  0  0
 12 13  1  0  0  0  0
 13 14  1  0  0  0  0
 13 15  2  0  0  0  0
 14 18  1  0  0  0  0
 16 15  1  0  0  0  0
 16  6  1  0  0  0  0
 17 12  1  0  0  0  0
 19 14  1  0  0  0  0
 21 20  1  0  0  0  0
 23 22  1  0  0  0  0
 24 25  1  0  0  0  0
 26 25  1  0  0  0  0
 26 30  1  0  0  0  0
 26 28  1  0  0  0  0
 27 26  2  0  0  0  0
 29 28  1  0  0  0  0
 31 30  1  0  0  0  0
M  END
>  <MODEL>
10

>  <REMARK>
 VINA RESULT:    -6.370      2.397      4.066
 INTER + INTRA:          -9.555
 INTER:                  -8.865
 INTRA:                  -0.691
 UNBOUND:                -0.951
  Name = 5GP
  8 active torsions:
  status: ('A' for Active; 'I' for Inactive)
    1  A    between atoms: P_1  and  O_3
    2  A    between atoms: P_1  and  O_4
    3  A    between atoms: P_1  and  O_5
    4  A    between atoms: O_5  and  C_6
    5  A    between atoms: C_6  and  C_7
    6  A    between atoms: C_9  and  O_10
    7  A    between atoms: C_11  and  O_12
    8  A    between atoms: C_13  and  N_14
                            x       y       z     vdW  Elec       q    Type
                         _______ _______ _______ _____ _____    ______ ____

>  <TORSDO>
F 8

$$$$
