5GP
 OpenBabel09132600403D

 31 33  0  0  1  0  0  0  0  0999 V2000
   24.3040   -3.8230   54.5750 C   0  0  1  0  0  3  0  0  0  0  0  0
   25.2000   -3.4810   53.5350 O   0  0  0  0  0  0  0  0  0  0  0  0
   23.9460   -2.5590   55.3680 C   0  0  2  0  0  3  0  0  0  0  0  0
   24.2220   -1.4610   54.3670 C   0  0  2  0  0  3  0  0  0  0  0  0
   25.3070   -2.0730   53.4810 C   0  0  2  0  0  3  0  0  0  0  0  0
   25.1680   -1.6080   52.1000 N   0  0  0  0  0  0  0  0  0  0  0  0
   24.0360   -1.5300   51.3500 C   0  0  0  0  0  3  0  0  0  0  0  0
   24.2360   -0.9500   50.1330 N   0  0  0  0  0  0  0  0  0  0  0  0
   25.5500   -0.6550   50.1580 C   0  0  0  0  0  0  0  0  0  0  0  0
   26.3290   -0.0240   49.2000 C   0  0  0  0  0  0  0  0  0  0  0  0
   25.8370    0.3480   48.1010 O   0  0  0  0  0  0  0  0  0  0  0  0
   27.6500    0.1880   49.4870 N   0  0  0  0  0  0  0  0  0  0  0  0
   28.1880   -0.2070   50.6900 C   0  0  0  0  0  0  0  0  0  0  0  0
   29.5680    0.0290   50.9720 N   0  0  0  0  0  0  0  0  0  0  0  0
   27.4050   -0.8270   51.6270 N   0  0  0  0  0  0  0  0  0  0  0  0
   26.1010   -1.0390   51.3280 C   0  0  0  0  0  0  0  0  0  0  0  0
   28.2570    0.6620   48.7800 H   0  0  0  0  0  0  0  0  0  0  0  0
   29.9780   -0.2680   51.8840 H   0  0  0  0  0  0  0  0  0  0  0  0
   30.1810    0.5000   50.2720 H   0  0  0  0  0  0  0  0  0  0  0  0
   24.7390   -2.4380   56.5280 O   0  0  0  0  0  0  0  0  0  0  0  0
   25.3440   -1.6590   56.4140 H   0  0  0  0  0  0  0  0  0  0  0  0
   24.5960   -0.2380   54.9580 O   0  0  0  0  0  0  0  0  0  0  0  0
   24.1690    0.5040   54.4570 H   0  0  0  0  0  0  0  0  0  0  0  0
   23.0580   -4.4840   53.9710 C   0  0  0  0  0  2  0  0  0  0  0  0
   21.9720   -4.3100   54.8490 O   0  0  0  0  0  0  0  0  0  0  0  0
   20.6340   -3.7450   53.9540 P   0  0  0  0  0  0  0  0  0  0  0  0
   21.1110   -2.9310   52.7700 O   0  0  0  0  0  0  0  0  0  0  0  0
   19.6200   -2.8010   54.9300 O   0  0  0  0  0  0  0  0  0  0  0  0
   19.0690   -3.4510   55.4350 H   0  0  0  0  0  0  0  0  0  0  0  0
   19.7560   -5.0750   53.3880 O   0  0  0  0  0  0  0  0  0  0  0  0
   19.9490   -5.8000   54.0350 H   0  0  0  0  0  0  0  0  0  0  0  0
  1 24  1  6  0  0  0
  1  3  1  0  0  0  0
  2  1  1  0  0  0  0
  3 20  1  1  0  0  0
  4 22  1  1  0  0  0
  4  3  1  0  0  0  0
  5  6  1  6  0  0  0
  5  2  1  0  0  0  0
  5  4  1  0  0  0  0
  7  6  1  0  0  0  0
  8  9  1  0  0  0  0
  8  7  2  0  0  0  0
  9 16  2  0  0  0  0
 10 12  1  0  0  0  0
 10  9  1  0  0  0  0
 11 10  2  0  0  0  0
 12 13  1  0  0  0  0
 13 14  1  0  0  0  0
 13 15  2  0  0  0  0
 14 18  1  0  0  0  0
 16 15  1  0  0  0  0
 16  6  1  0  0  0  0
 17 12  1  0  0  0  0
 19 14  1  0  0  0  0
 21 20  1  0  0  0  0
 23 22  1  0  0  0  0
 24 25  1  0  0  0  0
 26 25  1  0  0  0  0
 26 28  1  0  0  0  0
 27 26  2  0  0  0  0
 28 29  1  0  0  0  0
 30 26  1  0  0  0  0
 30 31  1  0  0  0  0
M  END
>  <MODEL>
16

>  <REMARK>
 VINA RESULT:    -6.104      2.509      3.473
 INTER + INTRA:          -9.196
 INTER:                  -8.374
 INTRA:                  -0.822
 UNBOUND:                -0.951
  Name = 5GP
  8 active torsions:
  status: ('A' for Active; 'I' for Inactive)
    1  A    between atoms: P_1  and  O_3
    2  A    between atoms: P_1  and  O_4
    3  A    between atoms: P_1  and  O_5
    4  A    between atoms: O_5  and  C_6
    5  A    between atoms: C_6  and  C_7
    6  A    between atoms: C_9  and  O_10
    7  A    between atoms: C_11  and  O_12
    8  A    between atoms: C_13  and  N_14
                            x       y       z     vdW  Elec       q    Type
                         _______ _______ _______ _____ _____    ______ ____

>  <TORSDO>
F 8

$$$$
