5GP
 OpenBabel09132600403D

 31 33  0  0  1  0  0  0  0  0999 V2000
   21.9560   -3.4890   54.4640 C   0  0  1  0  0  3  0  0  0  0  0  0
   21.3030   -2.8540   53.3810 O   0  0  0  0  0  0  0  0  0  0  0  0
   22.6680   -4.7500   53.9540 C   0  0  2  0  0  3  0  0  0  0  0  0
   22.8520   -4.4450   52.4860 C   0  0  2  0  0  3  0  0  0  0  0  0
   21.6870   -3.5030   52.1850 C   0  0  2  0  0  3  0  0  0  0  0  0
   22.0710   -2.5150   51.1760 N   0  0  0  0  0  0  0  0  0  0  0  0
   21.3180   -2.0150   50.1590 C   0  0  0  0  0  3  0  0  0  0  0  0
   21.9430   -1.0260   49.4610 N   0  0  0  0  0  0  0  0  0  0  0  0
   23.1250   -0.9180   50.0960 C   0  0  0  0  0  0  0  0  0  0  0  0
   24.1800   -0.0500   49.8530 C   0  0  0  0  0  0  0  0  0  0  0  0
   24.1350    0.7820   48.9070 O   0  0  0  0  0  0  0  0  0  0  0  0
   25.2720   -0.1230   50.6740 N   0  0  0  0  0  0  0  0  0  0  0  0
   25.3200   -1.0220   51.7140 C   0  0  0  0  0  0  0  0  0  0  0  0
   26.4660   -1.0770   52.5640 N   0  0  0  0  0  0  0  0  0  0  0  0
   24.2700   -1.8700   51.9440 N   0  0  0  0  0  0  0  0  0  0  0  0
   23.1980   -1.7960   51.1190 C   0  0  0  0  0  0  0  0  0  0  0  0
   26.0790    0.5210   50.5100 H   0  0  0  0  0  0  0  0  0  0  0  0
   26.5050   -1.7570   53.3540 H   0  0  0  0  0  0  0  0  0  0  0  0
   27.2770   -0.4390   52.4060 H   0  0  0  0  0  0  0  0  0  0  0  0
   21.8860   -5.9040   54.1680 O   0  0  0  0  0  0  0  0  0  0  0  0
   22.3180   -6.4480   54.8770 H   0  0  0  0  0  0  0  0  0  0  0  0
   22.8780   -5.5930   51.6700 O   0  0  0  0  0  0  0  0  0  0  0  0
   22.9330   -6.3970   52.2490 H   0  0  0  0  0  0  0  0  0  0  0  0
   22.9400   -2.5040   55.1070 C   0  0  0  0  0  2  0  0  0  0  0  0
   24.1820   -3.1440   55.2860 O   0  0  0  0  0  0  0  0  0  0  0  0
   25.3120   -1.9920   55.8420 P   0  0  0  0  0  0  0  0  0  0  0  0
   24.9590   -0.6210   55.3050 O   0  0  0  0  0  0  0  0  0  0  0  0
   26.8790   -2.4140   55.3570 O   0  0  0  0  0  0  0  0  0  0  0  0
   27.0210   -3.3300   55.7070 H   0  0  0  0  0  0  0  0  0  0  0  0
   25.2600   -1.9490   57.5320 O   0  0  0  0  0  0  0  0  0  0  0  0
   24.3030   -2.0660   57.7590 H   0  0  0  0  0  0  0  0  0  0  0  0
  1 24  1  6  0  0  0
  2  1  1  0  0  0  0
  3 20  1  6  0  0  0
  3  1  1  0  0  0  0
  4 22  1  6  0  0  0
  4  3  1  0  0  0  0
  5  6  1  6  0  0  0
  5  4  1  0  0  0  0
  5  2  1  0  0  0  0
  7  6  1  0  0  0  0
  8  9  1  0  0  0  0
  8  7  2  0  0  0  0
  9 16  2  0  0  0  0
 10  9  1  0  0  0  0
 10 12  1  0  0  0  0
 11 10  2  0  0  0  0
 12 13  1  0  0  0  0
 13 15  2  0  0  0  0
 13 14  1  0  0  0  0
 14 18  1  0  0  0  0
 16  6  1  0  0  0  0
 16 15  1  0  0  0  0
 17 12  1  0  0  0  0
 19 14  1  0  0  0  0
 20 21  1  0  0  0  0
 22 23  1  0  0  0  0
 24 25  1  0  0  0  0
 25 26  1  0  0  0  0
 26 30  1  0  0  0  0
 27 26  2  0  0  0  0
 28 29  1  0  0  0  0
 28 26  1  0  0  0  0
 30 31  1  0  0  0  0
M  END
>  <MODEL>
2

>  <REMARK>
 VINA RESULT:    -6.744      2.280      3.393
 INTER + INTRA:         -10.060
 INTER:                  -9.108
 INTRA:                  -0.952
 UNBOUND:                -0.951
  Name = 5GP
  8 active torsions:
  status: ('A' for Active; 'I' for Inactive)
    1  A    between atoms: P_1  and  O_3
    2  A    between atoms: P_1  and  O_4
    3  A    between atoms: P_1  and  O_5
    4  A    between atoms: O_5  and  C_6
    5  A    between atoms: C_6  and  C_7
    6  A    between atoms: C_9  and  O_10
    7  A    between atoms: C_11  and  O_12
    8  A    between atoms: C_13  and  N_14
                            x       y       z     vdW  Elec       q    Type
                         _______ _______ _______ _____ _____    ______ ____

>  <TORSDO>
F 8

$$$$
