5GP
 OpenBabel09132600403D

 31 33  0  0  1  0  0  0  0  0999 V2000
   29.8360    0.4730   50.4710 C   0  0  1  0  0  3  0  0  0  0  0  0
   28.7280    0.0590   51.2480 O   0  0  0  0  0  0  0  0  0  0  0  0
   30.2600   -0.6750   49.5440 C   0  0  2  0  0  3  0  0  0  0  0  0
   28.9940   -1.4920   49.4440 C   0  0  2  0  0  3  0  0  0  0  0  0
   28.2910   -1.1970   50.7690 C   0  0  2  0  0  3  0  0  0  0  0  0
   26.8380   -1.1920   50.5920 N   0  0  0  0  0  0  0  0  0  0  0  0
   26.1320   -1.2290   49.4300 C   0  0  0  0  0  3  0  0  0  0  0  0
   24.7860   -1.3210   49.6200 N   0  0  0  0  0  0  0  0  0  0  0  0
   24.6780   -1.3520   50.9620 C   0  0  0  0  0  0  0  0  0  0  0  0
   23.5450   -1.4680   51.7520 C   0  0  0  0  0  0  0  0  0  0  0  0
   22.3960   -1.5380   51.2380 O   0  0  0  0  0  0  0  0  0  0  0  0
   23.7110   -1.5090   53.1100 N   0  0  0  0  0  0  0  0  0  0  0  0
   24.9640   -1.4440   53.6740 C   0  0  0  0  0  0  0  0  0  0  0  0
   25.1160   -1.4940   55.0930 N   0  0  0  0  0  0  0  0  0  0  0  0
   26.0740   -1.3320   52.8810 N   0  0  0  0  0  0  0  0  0  0  0  0
   25.8970   -1.2830   51.5390 C   0  0  0  0  0  0  0  0  0  0  0  0
   22.8710   -1.5960   53.7260 H   0  0  0  0  0  0  0  0  0  0  0  0
   26.0650   -1.4470   55.5230 H   0  0  0  0  0  0  0  0  0  0  0  0
   24.2830   -1.5800   55.7150 H   0  0  0  0  0  0  0  0  0  0  0  0
   31.3300   -1.4100   50.0940 O   0  0  0  0  0  0  0  0  0  0  0  0
   31.8710   -0.8000   50.6620 H   0  0  0  0  0  0  0  0  0  0  0  0
   29.2230   -2.8640   49.2170 O   0  0  0  0  0  0  0  0  0  0  0  0
   29.4630   -2.9950   48.2630 H   0  0  0  0  0  0  0  0  0  0  0  0
   29.4540    1.7300   49.6780 C   0  0  0  0  0  2  0  0  0  0  0  0
   30.3240    2.7790   50.0290 O   0  0  0  0  0  0  0  0  0  0  0  0
   30.4000    3.8810   48.7290 P   0  0  0  0  0  0  0  0  0  0  0  0
   30.0690    3.1740   47.4320 O   0  0  0  0  0  0  0  0  0  0  0  0
   31.9410    4.5780   48.6270 O   0  0  0  0  0  0  0  0  0  0  0  0
   32.5490    3.8300   48.3950 H   0  0  0  0  0  0  0  0  0  0  0  0
   29.2670    5.1100   48.9890 O   0  0  0  0  0  0  0  0  0  0  0  0
   29.6850    5.9240   48.6110 H   0  0  0  0  0  0  0  0  0  0  0  0
  1 24  1  6  0  0  0
  1  2  1  0  0  0  0
  3 20  1  1  0  0  0
  3  1  1  0  0  0  0
  4 22  1  1  0  0  0
  4  3  1  0  0  0  0
  4  5  1  0  0  0  0
  5  6  1  6  0  0  0
  5  2  1  0  0  0  0
  6 16  1  0  0  0  0
  7  8  2  0  0  0  0
  7  6  1  0  0  0  0
  8  9  1  0  0  0  0
  9 16  2  0  0  0  0
  9 10  1  0  0  0  0
 10 12  1  0  0  0  0
 11 10  2  0  0  0  0
 12 13  1  0  0  0  0
 12 17  1  0  0  0  0
 13 14  1  0  0  0  0
 14 18  1  0  0  0  0
 14 19  1  0  0  0  0
 15 13  2  0  0  0  0
 16 15  1  0  0  0  0
 20 21  1  0  0  0  0
 23 22  1  0  0  0  0
 24 25  1  0  0  0  0
 26 30  1  0  0  0  0
 26 25  1  0  0  0  0
 27 26  2  0  0  0  0
 28 26  1  0  0  0  0
 29 28  1  0  0  0  0
 31 30  1  0  0  0  0
M  END
>  <MODEL>
17

>  <REMARK>
 VINA RESULT:    -6.094      4.221      6.820
 INTER + INTRA:          -9.183
 INTER:                  -8.588
 INTRA:                  -0.594
 UNBOUND:                -0.951
  Name = 5GP
  8 active torsions:
  status: ('A' for Active; 'I' for Inactive)
    1  A    between atoms: P_1  and  O_3
    2  A    between atoms: P_1  and  O_4
    3  A    between atoms: P_1  and  O_5
    4  A    between atoms: O_5  and  C_6
    5  A    between atoms: C_6  and  C_7
    6  A    between atoms: C_9  and  O_10
    7  A    between atoms: C_11  and  O_12
    8  A    between atoms: C_13  and  N_14
                            x       y       z     vdW  Elec       q    Type
                         _______ _______ _______ _____ _____    ______ ____

>  <TORSDO>
F 8

$$$$
