5GP
 OpenBabel09132600403D

 31 33  0  0  1  0  0  0  0  0999 V2000
   33.1340   -3.6840   49.7660 C   0  0  1  0  0  3  0  0  0  0  0  0
   32.3610   -2.5160   49.9690 O   0  0  0  0  0  0  0  0  0  0  0  0
   32.3720   -4.8960   50.3210 C   0  0  2  0  0  3  0  0  0  0  0  0
   30.9400   -4.4150   50.2980 C   0  0  2  0  0  3  0  0  0  0  0  0
   31.0860   -2.9010   50.4450 C   0  0  2  0  0  3  0  0  0  0  0  0
   30.0380   -2.2060   49.6970 N   0  0  0  0  0  0  0  0  0  0  0  0
   29.0950   -2.7410   48.8760 C   0  0  0  0  0  3  0  0  0  0  0  0
   28.1970   -1.8260   48.4170 N   0  0  0  0  0  0  0  0  0  0  0  0
   28.6140   -0.6850   48.9990 C   0  0  0  0  0  0  0  0  0  0  0  0
   28.0720    0.5900   48.9280 C   0  0  0  0  0  0  0  0  0  0  0  0
   27.0540    0.8270   48.2240 O   0  0  0  0  0  0  0  0  0  0  0  0
   28.6750    1.5840   49.6500 N   0  0  0  0  0  0  0  0  0  0  0  0
   29.7790    1.3260   50.4290 C   0  0  0  0  0  0  0  0  0  0  0  0
   30.3890    2.3760   51.1790 N   0  0  0  0  0  0  0  0  0  0  0  0
   30.3010    0.0620   50.4910 N   0  0  0  0  0  0  0  0  0  0  0  0
   29.7020   -0.9120   49.7650 C   0  0  0  0  0  0  0  0  0  0  0  0
   28.2840    2.5520   49.6110 H   0  0  0  0  0  0  0  0  0  0  0  0
   31.2260    2.1830   51.7710 H   0  0  0  0  0  0  0  0  0  0  0  0
   30.0070    3.3470   51.1460 H   0  0  0  0  0  0  0  0  0  0  0  0
   32.8060   -5.2230   51.6230 O   0  0  0  0  0  0  0  0  0  0  0  0
   32.7780   -6.2100   51.7240 H   0  0  0  0  0  0  0  0  0  0  0  0
   30.1290   -5.0050   51.2880 O   0  0  0  0  0  0  0  0  0  0  0  0
   29.9540   -5.9480   51.0370 H   0  0  0  0  0  0  0  0  0  0  0  0
   33.4300   -3.8400   48.2690 C   0  0  0  0  0  2  0  0  0  0  0  0
   34.1610   -5.0260   48.0640 O   0  0  0  0  0  0  0  0  0  0  0  0
   35.7970   -4.6180   47.8030 P   0  0  0  0  0  0  0  0  0  0  0  0
   36.5270   -5.7860   47.1760 O   0  0  0  0  0  0  0  0  0  0  0  0
   36.5440   -4.1880   49.2620 O   0  0  0  0  0  0  0  0  0  0  0  0
   35.8020   -3.9320   49.8670 H   0  0  0  0  0  0  0  0  0  0  0  0
   35.8670   -3.2960   46.7490 O   0  0  0  0  0  0  0  0  0  0  0  0
   34.9850   -2.8550   46.8370 H   0  0  0  0  0  0  0  0  0  0  0  0
  1 24  1  6  0  0  0
  1  2  1  0  0  0  0
  1  3  1  0  0  0  0
  2  5  1  0  0  0  0
  3 20  1  1  0  0  0
  4  3  1  0  0  0  0
  4  5  1  0  0  0  0
  4 22  1  1  0  0  0
  5  6  1  6  0  0  0
  6 16  1  0  0  0  0
  7  6  1  0  0  0  0
  8  7  2  0  0  0  0
  8  9  1  0  0  0  0
  9 16  2  0  0  0  0
 10  9  1  0  0  0  0
 10 12  1  0  0  0  0
 11 10  2  0  0  0  0
 12 13  1  0  0  0  0
 13 15  2  0  0  0  0
 13 14  1  0  0  0  0
 14 18  1  0  0  0  0
 16 15  1  0  0  0  0
 17 12  1  0  0  0  0
 19 14  1  0  0  0  0
 20 21  1  0  0  0  0
 23 22  1  0  0  0  0
 25 24  1  0  0  0  0
 26 25  1  0  0  0  0
 26 28  1  0  0  0  0
 27 26  2  0  0  0  0
 28 29  1  0  0  0  0
 30 31  1  0  0  0  0
 30 26  1  0  0  0  0
M  END
>  <MODEL>
6

>  <REMARK>
 VINA RESULT:    -6.529      6.428      8.485
 INTER + INTRA:          -9.769
 INTER:                  -9.142
 INTRA:                  -0.627
 UNBOUND:                -0.951
  Name = 5GP
  8 active torsions:
  status: ('A' for Active; 'I' for Inactive)
    1  A    between atoms: P_1  and  O_3
    2  A    between atoms: P_1  and  O_4
    3  A    between atoms: P_1  and  O_5
    4  A    between atoms: O_5  and  C_6
    5  A    between atoms: C_6  and  C_7
    6  A    between atoms: C_9  and  O_10
    7  A    between atoms: C_11  and  O_12
    8  A    between atoms: C_13  and  N_14
                            x       y       z     vdW  Elec       q    Type
                         _______ _______ _______ _____ _____    ______ ____

>  <TORSDO>
F 8

$$$$
