5GP
 OpenBabel09132600403D

 31 33  0  0  1  0  0  0  0  0999 V2000
   28.3590   -0.3360   50.7520 C   0  0  1  0  0  3  0  0  0  0  0  0
   29.2750   -1.3860   50.9970 O   0  0  0  0  0  0  0  0  0  0  0  0
   28.9080    0.5620   49.6340 C   0  0  2  0  0  3  0  0  0  0  0  0
   29.8520   -0.3680   48.9090 C   0  0  2  0  0  3  0  0  0  0  0  0
   30.2810   -1.3420   50.0060 C   0  0  2  0  0  3  0  0  0  0  0  0
   30.5020   -2.6780   49.4510 N   0  0  0  0  0  0  0  0  0  0  0  0
   29.9870   -3.2110   48.3110 C   0  0  0  0  0  3  0  0  0  0  0  0
   30.4800   -4.4480   48.0240 N   0  0  0  0  0  0  0  0  0  0  0  0
   31.3420   -4.6660   49.0350 C   0  0  0  0  0  0  0  0  0  0  0  0
   32.1690   -5.7540   49.2700 C   0  0  0  0  0  0  0  0  0  0  0  0
   32.1730   -6.7480   48.4960 O   0  0  0  0  0  0  0  0  0  0  0  0
   32.9850   -5.7140   50.3680 N   0  0  0  0  0  0  0  0  0  0  0  0
   32.9910   -4.6250   51.2090 C   0  0  0  0  0  0  0  0  0  0  0  0
   33.8550   -4.6010   52.3450 N   0  0  0  0  0  0  0  0  0  0  0  0
   32.1710   -3.5570   50.9620 N   0  0  0  0  0  0  0  0  0  0  0  0
   31.3610   -3.6120   49.8780 C   0  0  0  0  0  0  0  0  0  0  0  0
   33.6170   -6.5230   50.5650 H   0  0  0  0  0  0  0  0  0  0  0  0
   33.8620   -3.7760   52.9840 H   0  0  0  0  0  0  0  0  0  0  0  0
   34.4880   -5.4050   52.5510 H   0  0  0  0  0  0  0  0  0  0  0  0
   29.5670    1.6920   50.1610 O   0  0  0  0  0  0  0  0  0  0  0  0
   28.9060    2.4270   50.2490 H   0  0  0  0  0  0  0  0  0  0  0  0
   30.9280    0.2940   48.2850 O   0  0  0  0  0  0  0  0  0  0  0  0
   30.6020    1.1520   47.9100 H   0  0  0  0  0  0  0  0  0  0  0  0
   26.9950   -0.9320   50.3810 C   0  0  0  0  0  2  0  0  0  0  0  0
   26.0510   -0.5700   51.3610 O   0  0  0  0  0  0  0  0  0  0  0  0
   25.9300   -1.8400   52.4940 P   0  0  0  0  0  0  0  0  0  0  0  0
   26.2980   -1.3380   53.8730 O   0  0  0  0  0  0  0  0  0  0  0  0
   26.9450   -3.1250   52.0590 O   0  0  0  0  0  0  0  0  0  0  0  0
   26.4360   -3.6390   51.3820 H   0  0  0  0  0  0  0  0  0  0  0  0
   24.3320   -2.3960   52.5200 O   0  0  0  0  0  0  0  0  0  0  0  0
   24.0560   -2.4160   51.5690 H   0  0  0  0  0  0  0  0  0  0  0  0
  1 24  1  6  0  0  0
  1  2  1  0  0  0  0
  3 20  1  1  0  0  0
  3  1  1  0  0  0  0
  4 22  1  1  0  0  0
  4  3  1  0  0  0  0
  4  5  1  0  0  0  0
  5  6  1  6  0  0  0
  5  2  1  0  0  0  0
  6 16  1  0  0  0  0
  7  6  1  0  0  0  0
  8  7  2  0  0  0  0
  8  9  1  0  0  0  0
  9 10  1  0  0  0  0
  9 16  2  0  0  0  0
 10 12  1  0  0  0  0
 11 10  2  0  0  0  0
 12 17  1  0  0  0  0
 12 13  1  0  0  0  0
 13 14  1  0  0  0  0
 14 19  1  0  0  0  0
 14 18  1  0  0  0  0
 15 13  2  0  0  0  0
 16 15  1  0  0  0  0
 20 21  1  0  0  0  0
 23 22  1  0  0  0  0
 24 25  1  0  0  0  0
 25 26  1  0  0  0  0
 26 30  1  0  0  0  0
 26 27  2  0  0  0  0
 28 26  1  0  0  0  0
 29 28  1  0  0  0  0
 31 30  1  0  0  0  0
M  END
>  <MODEL>
18

>  <REMARK>
 VINA RESULT:    -6.010      5.055      7.096
 INTER + INTRA:          -9.068
 INTER:                  -8.182
 INTRA:                  -0.886
 UNBOUND:                -0.951
  Name = 5GP
  8 active torsions:
  status: ('A' for Active; 'I' for Inactive)
    1  A    between atoms: P_1  and  O_3
    2  A    between atoms: P_1  and  O_4
    3  A    between atoms: P_1  and  O_5
    4  A    between atoms: O_5  and  C_6
    5  A    between atoms: C_6  and  C_7
    6  A    between atoms: C_9  and  O_10
    7  A    between atoms: C_11  and  O_12
    8  A    between atoms: C_13  and  N_14
                            x       y       z     vdW  Elec       q    Type
                         _______ _______ _______ _____ _____    ______ ____

>  <TORSDO>
F 8

$$$$
