ALL
 OpenBabel09132600393D

 17 17  0  0  1  0  0  0  0  0999 V2000
    8.1080   18.6520   18.9470 C   0  0  1  0  0  3  0  0  0  0  0  0
    8.0090   17.5430   17.8800 C   0  0  1  0  0  3  0  0  0  0  0  0
    7.4730   16.2340   18.4960 C   0  0  1  0  0  3  0  0  0  0  0  0
    8.1950   15.9040   19.8230 C   0  0  1  0  0  3  0  0  0  0  0  0
    8.2900   17.1580   20.7290 C   0  0  2  0  0  3  0  0  0  0  0  0
    8.9150   18.2200   20.0270 O   0  0  0  0  0  0  0  0  0  0  0  0
    8.7000   19.7830   18.3690 O   0  0  0  0  0  0  0  0  0  0  0  0
    9.3090   19.4500   17.6590 H   0  0  0  0  0  0  0  0  0  0  0  0
    7.1680   17.9460   16.8300 O   0  0  0  0  0  0  0  0  0  0  0  0
    7.4910   18.8330   16.5240 H   0  0  0  0  0  0  0  0  0  0  0  0
    6.0740   16.2670   18.6570 O   0  0  0  0  0  0  0  0  0  0  0  0
    5.6830   16.7650   17.8960 H   0  0  0  0  0  0  0  0  0  0  0  0
    7.5170   14.8720   20.4930 O   0  0  0  0  0  0  0  0  0  0  0  0
    7.0460   14.3410   19.7980 H   0  0  0  0  0  0  0  0  0  0  0  0
    9.1200   16.8740   21.9890 C   0  0  0  0  0  2  0  0  0  0  0  0
    9.9100   15.7310   21.8090 O   0  0  0  0  0  0  0  0  0  0  0  0
   10.6890   15.8370   22.4150 H   0  0  0  0  0  0  0  0  0  0  0  0
  1  7  1  6  0  0  0
  1  6  1  0  0  0  0
  2  9  1  6  0  0  0
  2  3  1  0  0  0  0
  2  1  1  0  0  0  0
  3 11  1  1  0  0  0
  3  4  1  0  0  0  0
  4 13  1  1  0  0  0
  4  5  1  0  0  0  0
  5 15  1  1  0  0  0
  6  5  1  0  0  0  0
  8  7  1  0  0  0  0
 10  9  1  0  0  0  0
 12 11  1  0  0  0  0
 14 13  1  0  0  0  0
 16 15  1  0  0  0  0
 16 17  1  0  0  0  0
M  END
>  <MODEL>
17

>  <REMARK>
 VINA RESULT:    -4.552      4.349      5.895
 INTER + INTRA:          -5.531
 INTER:                  -5.281
 INTRA:                  -0.250
 UNBOUND:                -0.047
  Name = ALL
  6 active torsions:
  status: ('A' for Active; 'I' for Inactive)
    1  A    between atoms: C_1  and  O_7
    2  A    between atoms: C_2  and  O_8
    3  A    between atoms: C_3  and  O_9
    4  A    between atoms: C_4  and  O_10
    5  A    between atoms: C_5  and  C_6
    6  A    between atoms: C_6  and  O_12
                            x       y       z     vdW  Elec       q    Type
                         _______ _______ _______ _____ _____    ______ ____

>  <TORSDO>
F 6

$$$$
