ALL
 OpenBabel09132600393D

 17 17  0  0  1  0  0  0  0  0999 V2000
    7.1510   10.1740   17.4900 C   0  0  1  0  0  3  0  0  0  0  0  0
    8.6920   10.1660   17.5460 C   0  0  1  0  0  3  0  0  0  0  0  0
    9.1920   10.5740   18.9470 C   0  0  1  0  0  3  0  0  0  0  0  0
    8.4530   11.8310   19.4610 C   0  0  1  0  0  3  0  0  0  0  0  0
    6.9250   11.7070   19.2340 C   0  0  2  0  0  3  0  0  0  0  0  0
    6.6550   11.4470   17.8660 O   0  0  0  0  0  0  0  0  0  0  0  0
    6.7460    9.9060   16.1750 O   0  0  0  0  0  0  0  0  0  0  0  0
    7.0140    8.9700   15.9830 H   0  0  0  0  0  0  0  0  0  0  0  0
    9.1870    8.8910   17.2240 O   0  0  0  0  0  0  0  0  0  0  0  0
    9.1750    8.8180   16.2340 H   0  0  0  0  0  0  0  0  0  0  0  0
    9.1080    9.5080   19.8640 O   0  0  0  0  0  0  0  0  0  0  0  0
    9.6300    9.7470   20.6710 H   0  0  0  0  0  0  0  0  0  0  0  0
    8.7270   12.0240   20.8250 O   0  0  0  0  0  0  0  0  0  0  0  0
    7.9490   12.5100   21.2070 H   0  0  0  0  0  0  0  0  0  0  0  0
    6.1970   13.0030   19.6180 C   0  0  0  0  0  2  0  0  0  0  0  0
    5.8850   13.0050   20.9840 O   0  0  0  0  0  0  0  0  0  0  0  0
    6.7470   13.1140   21.4630 H   0  0  0  0  0  0  0  0  0  0  0  0
  1  7  1  6  0  0  0
  1  2  1  0  0  0  0
  1  6  1  0  0  0  0
  2  9  1  1  0  0  0
  2  3  1  0  0  0  0
  3  4  1  0  0  0  0
  3 11  1  1  0  0  0
  4 13  1  1  0  0  0
  5  4  1  0  0  0  0
  5 15  1  6  0  0  0
  6  5  1  0  0  0  0
  8  7  1  0  0  0  0
 10  9  1  0  0  0  0
 11 12  1  0  0  0  0
 13 14  1  0  0  0  0
 15 16  1  0  0  0  0
 16 17  1  0  0  0  0
M  END
>  <MODEL>
4

>  <REMARK>
 VINA RESULT:    -4.917      2.100      4.208
 INTER + INTRA:          -5.970
 INTER:                  -5.730
 INTRA:                  -0.240
 UNBOUND:                -0.047
  Name = ALL
  6 active torsions:
  status: ('A' for Active; 'I' for Inactive)
    1  A    between atoms: C_1  and  O_7
    2  A    between atoms: C_2  and  O_8
    3  A    between atoms: C_3  and  O_9
    4  A    between atoms: C_4  and  O_10
    5  A    between atoms: C_5  and  C_6
    6  A    between atoms: C_6  and  O_12
                            x       y       z     vdW  Elec       q    Type
                         _______ _______ _______ _____ _____    ______ ____

>  <TORSDO>
F 6

$$$$
