ALL
 OpenBabel09132600393D

 17 17  0  0  1  0  0  0  0  0999 V2000
    8.7150   12.7420   19.8540 C   0  0  1  0  0  3  0  0  0  0  0  0
    7.6520   13.8420   19.6600 C   0  0  1  0  0  3  0  0  0  0  0  0
    6.2310   13.2400   19.6690 C   0  0  1  0  0  3  0  0  0  0  0  0
    6.1500   11.9840   18.7710 C   0  0  1  0  0  3  0  0  0  0  0  0
    7.3500   11.0380   19.0310 C   0  0  2  0  0  3  0  0  0  0  0  0
    8.5700   11.7420   18.8620 O   0  0  0  0  0  0  0  0  0  0  0  0
    9.9880   13.3180   19.7280 O   0  0  0  0  0  0  0  0  0  0  0  0
   10.1800   13.7660   20.5930 H   0  0  0  0  0  0  0  0  0  0  0  0
    7.7580   14.8100   20.6720 O   0  0  0  0  0  0  0  0  0  0  0  0
    6.8880   15.2870   20.7090 H   0  0  0  0  0  0  0  0  0  0  0  0
    5.7840   12.9750   20.9780 O   0  0  0  0  0  0  0  0  0  0  0  0
    6.5620   13.0250   21.5900 H   0  0  0  0  0  0  0  0  0  0  0  0
    4.9410   11.3070   19.0030 O   0  0  0  0  0  0  0  0  0  0  0  0
    4.3340   11.9510   19.4540 H   0  0  0  0  0  0  0  0  0  0  0  0
    7.3510    9.8550   18.0530 C   0  0  0  0  0  2  0  0  0  0  0  0
    6.7480   10.2200   16.8410 O   0  0  0  0  0  0  0  0  0  0  0  0
    5.8930   10.6620   17.0820 H   0  0  0  0  0  0  0  0  0  0  0  0
  1  7  1  6  0  0  0
  2  3  1  0  0  0  0
  2  1  1  0  0  0  0
  2  9  1  1  0  0  0
  3 11  1  1  0  0  0
  4 13  1  1  0  0  0
  4  5  1  0  0  0  0
  4  3  1  0  0  0  0
  5 15  1  6  0  0  0
  6  5  1  0  0  0  0
  6  1  1  0  0  0  0
  7  8  1  0  0  0  0
  9 10  1  0  0  0  0
 11 12  1  0  0  0  0
 13 14  1  0  0  0  0
 16 17  1  0  0  0  0
 16 15  1  0  0  0  0
M  END
>  <MODEL>
2

>  <REMARK>
 VINA RESULT:    -4.958      1.925      3.225
 INTER + INTRA:          -6.019
 INTER:                  -5.771
 INTRA:                  -0.248
 UNBOUND:                -0.047
  Name = ALL
  6 active torsions:
  status: ('A' for Active; 'I' for Inactive)
    1  A    between atoms: C_1  and  O_7
    2  A    between atoms: C_2  and  O_8
    3  A    between atoms: C_3  and  O_9
    4  A    between atoms: C_4  and  O_10
    5  A    between atoms: C_5  and  C_6
    6  A    between atoms: C_6  and  O_12
                            x       y       z     vdW  Elec       q    Type
                         _______ _______ _______ _____ _____    ______ ____

>  <TORSDO>
F 6

$$$$
