ALL
 OpenBabel09132600393D

 17 17  0  0  1  0  0  0  0  0999 V2000
    9.1430   11.7790   18.1560 C   0  0  1  0  0  3  0  0  0  0  0  0
    8.7630   10.2850   18.1660 C   0  0  1  0  0  3  0  0  0  0  0  0
    7.2370   10.1050   18.0320 C   0  0  1  0  0  3  0  0  0  0  0  0
    6.4760   11.0550   18.9850 C   0  0  1  0  0  3  0  0  0  0  0  0
    7.0550   12.4910   18.9160 C   0  0  2  0  0  3  0  0  0  0  0  0
    8.4480   12.4670   19.1810 O   0  0  0  0  0  0  0  0  0  0  0  0
   10.5200   11.8970   18.3900 O   0  0  0  0  0  0  0  0  0  0  0  0
   10.8040   12.7510   17.9720 H   0  0  0  0  0  0  0  0  0  0  0  0
    9.4090    9.6080   17.1190 O   0  0  0  0  0  0  0  0  0  0  0  0
    9.8760   10.2940   16.5740 H   0  0  0  0  0  0  0  0  0  0  0  0
    6.8090   10.2510   16.6980 O   0  0  0  0  0  0  0  0  0  0  0  0
    6.6180    9.3510   16.3300 H   0  0  0  0  0  0  0  0  0  0  0  0
    5.1090   11.0670   18.6590 O   0  0  0  0  0  0  0  0  0  0  0  0
    4.9410   11.9140   18.1670 H   0  0  0  0  0  0  0  0  0  0  0  0
    6.3950   13.4090   19.9540 C   0  0  0  0  0  2  0  0  0  0  0  0
    5.9060   12.6600   21.0320 O   0  0  0  0  0  0  0  0  0  0  0  0
    4.9330   12.8510   21.0810 H   0  0  0  0  0  0  0  0  0  0  0  0
  1  2  1  0  0  0  0
  1  7  1  1  0  0  0
  1  6  1  0  0  0  0
  2  9  1  6  0  0  0
  3 11  1  6  0  0  0
  3  2  1  0  0  0  0
  3  4  1  0  0  0  0
  4 13  1  6  0  0  0
  5  4  1  0  0  0  0
  5  6  1  0  0  0  0
  5 15  1  1  0  0  0
  8  7  1  0  0  0  0
 10  9  1  0  0  0  0
 12 11  1  0  0  0  0
 14 13  1  0  0  0  0
 15 16  1  0  0  0  0
 16 17  1  0  0  0  0
M  END
>  <MODEL>
19

>  <REMARK>
 VINA RESULT:    -4.444      1.989      4.259
 INTER + INTRA:          -5.401
 INTER:                  -5.148
 INTRA:                  -0.253
 UNBOUND:                -0.047
  Name = ALL
  6 active torsions:
  status: ('A' for Active; 'I' for Inactive)
    1  A    between atoms: C_1  and  O_7
    2  A    between atoms: C_2  and  O_8
    3  A    between atoms: C_3  and  O_9
    4  A    between atoms: C_4  and  O_10
    5  A    between atoms: C_5  and  C_6
    6  A    between atoms: C_6  and  O_12
                            x       y       z     vdW  Elec       q    Type
                         _______ _______ _______ _____ _____    ______ ____

>  <TORSDO>
F 6

$$$$
