ALL
 OpenBabel09132600393D

 17 17  0  0  1  0  0  0  0  0999 V2000
    9.2650   21.9930   23.3440 C   0  0  1  0  0  3  0  0  0  0  0  0
    8.1390   20.9840   23.0380 C   0  0  1  0  0  3  0  0  0  0  0  0
    6.9500   21.6820   22.3460 C   0  0  1  0  0  3  0  0  0  0  0  0
    6.5720   22.9940   23.0710 C   0  0  1  0  0  3  0  0  0  0  0  0
    7.8350   23.8360   23.3870 C   0  0  2  0  0  3  0  0  0  0  0  0
    8.7640   23.0610   24.1280 O   0  0  0  0  0  0  0  0  0  0  0  0
   10.2720   21.3390   24.0680 O   0  0  0  0  0  0  0  0  0  0  0  0
   10.1060   21.5410   25.0260 H   0  0  0  0  0  0  0  0  0  0  0  0
    8.6180   19.9490   22.2180 O   0  0  0  0  0  0  0  0  0  0  0  0
    8.5980   19.1180   22.7600 H   0  0  0  0  0  0  0  0  0  0  0  0
    7.1940   21.8940   20.9750 O   0  0  0  0  0  0  0  0  0  0  0  0
    7.5890   21.0690   20.5960 H   0  0  0  0  0  0  0  0  0  0  0  0
    5.6790   23.7380   22.2810 O   0  0  0  0  0  0  0  0  0  0  0  0
    5.2980   24.4430   22.8680 H   0  0  0  0  0  0  0  0  0  0  0  0
    7.4840   25.0750   24.2230 C   0  0  0  0  0  2  0  0  0  0  0  0
    6.2850   24.8740   24.9200 O   0  0  0  0  0  0  0  0  0  0  0  0
    5.6370   24.5210   24.2560 H   0  0  0  0  0  0  0  0  0  0  0  0
  1  7  1  1  0  0  0
  1  6  1  0  0  0  0
  2  9  1  6  0  0  0
  2  1  1  0  0  0  0
  3 11  1  6  0  0  0
  3  2  1  0  0  0  0
  3  4  1  0  0  0  0
  4 13  1  6  0  0  0
  4  5  1  0  0  0  0
  5  6  1  0  0  0  0
  5 15  1  1  0  0  0
  7  8  1  0  0  0  0
  9 10  1  0  0  0  0
 12 11  1  0  0  0  0
 13 14  1  0  0  0  0
 15 16  1  0  0  0  0
 17 16  1  0  0  0  0
M  END
>  <MODEL>
14

>  <REMARK>
 VINA RESULT:    -4.576      9.860     11.946
 INTER + INTRA:          -5.559
 INTER:                  -5.305
 INTRA:                  -0.254
 UNBOUND:                -0.047
  Name = ALL
  6 active torsions:
  status: ('A' for Active; 'I' for Inactive)
    1  A    between atoms: C_1  and  O_7
    2  A    between atoms: C_2  and  O_8
    3  A    between atoms: C_3  and  O_9
    4  A    between atoms: C_4  and  O_10
    5  A    between atoms: C_5  and  C_6
    6  A    between atoms: C_6  and  O_12
                            x       y       z     vdW  Elec       q    Type
                         _______ _______ _______ _____ _____    ______ ____

>  <TORSDO>
F 6

$$$$
