ALL
 OpenBabel09132600393D

 17 17  0  0  1  0  0  0  0  0999 V2000
    6.5120   12.5590   19.8270 C   0  0  1  0  0  3  0  0  0  0  0  0
    8.0480   12.6650   19.8890 C   0  0  1  0  0  3  0  0  0  0  0  0
    8.6890   12.1290   18.5920 C   0  0  1  0  0  3  0  0  0  0  0  0
    8.0700   10.7730   18.1820 C   0  0  1  0  0  3  0  0  0  0  0  0
    6.5240   10.8190   18.2730 C   0  0  2  0  0  3  0  0  0  0  0  0
    6.1240   11.2200   19.5740 O   0  0  0  0  0  0  0  0  0  0  0  0
    5.9810   12.9520   21.0640 O   0  0  0  0  0  0  0  0  0  0  0  0
    5.3960   13.7330   20.8830 H   0  0  0  0  0  0  0  0  0  0  0  0
    8.4400   13.9990   20.0890 O   0  0  0  0  0  0  0  0  0  0  0  0
    8.3720   14.1780   21.0630 H   0  0  0  0  0  0  0  0  0  0  0  0
    8.6210   13.0710   17.5470 O   0  0  0  0  0  0  0  0  0  0  0  0
    9.3480   12.8780   16.9040 H   0  0  0  0  0  0  0  0  0  0  0  0
    8.4690   10.4390   16.8770 O   0  0  0  0  0  0  0  0  0  0  0  0
    9.1360    9.7080   16.9600 H   0  0  0  0  0  0  0  0  0  0  0  0
    5.9070    9.4400   17.9970 C   0  0  0  0  0  2  0  0  0  0  0  0
    4.5440    9.5630   17.7000 O   0  0  0  0  0  0  0  0  0  0  0  0
    4.0890    8.8270   18.1870 H   0  0  0  0  0  0  0  0  0  0  0  0
  1  2  1  0  0  0  0
  1  7  1  1  0  0  0
  2  9  1  6  0  0  0
  3 11  1  6  0  0  0
  3  2  1  0  0  0  0
  4 13  1  6  0  0  0
  4  5  1  0  0  0  0
  4  3  1  0  0  0  0
  5 15  1  1  0  0  0
  5  6  1  0  0  0  0
  6  1  1  0  0  0  0
  8  7  1  0  0  0  0
  9 10  1  0  0  0  0
 12 11  1  0  0  0  0
 13 14  1  0  0  0  0
 16 15  1  0  0  0  0
 16 17  1  0  0  0  0
M  END
>  <MODEL>
18

>  <REMARK>
 VINA RESULT:    -4.495      1.819      2.243
 INTER + INTRA:          -5.462
 INTER:                  -5.427
 INTRA:                  -0.035
 UNBOUND:                -0.047
  Name = ALL
  6 active torsions:
  status: ('A' for Active; 'I' for Inactive)
    1  A    between atoms: C_1  and  O_7
    2  A    between atoms: C_2  and  O_8
    3  A    between atoms: C_3  and  O_9
    4  A    between atoms: C_4  and  O_10
    5  A    between atoms: C_5  and  C_6
    6  A    between atoms: C_6  and  O_12
                            x       y       z     vdW  Elec       q    Type
                         _______ _______ _______ _____ _____    ______ ____

>  <TORSDO>
F 6

$$$$
