ALL
 OpenBabel09132600393D

 17 17  0  0  1  0  0  0  0  0999 V2000
    5.8310    8.7870   16.0330 C   0  0  1  0  0  3  0  0  0  0  0  0
    4.6460    8.5970   17.0010 C   0  0  1  0  0  3  0  0  0  0  0  0
    5.0450    8.9850   18.4400 C   0  0  1  0  0  3  0  0  0  0  0  0
    6.4070    8.3670   18.8290 C   0  0  1  0  0  3  0  0  0  0  0  0
    7.4490    8.5660   17.7000 C   0  0  2  0  0  3  0  0  0  0  0  0
    6.9500    8.0430   16.4790 O   0  0  0  0  0  0  0  0  0  0  0  0
    5.4580    8.3200   14.7650 O   0  0  0  0  0  0  0  0  0  0  0  0
    5.9500    8.8750   14.1050 H   0  0  0  0  0  0  0  0  0  0  0  0
    3.5500    9.3740   16.5920 O   0  0  0  0  0  0  0  0  0  0  0  0
    3.8960   10.2830   16.3970 H   0  0  0  0  0  0  0  0  0  0  0  0
    5.0320   10.3810   18.6280 O   0  0  0  0  0  0  0  0  0  0  0  0
    5.8520   10.7590   18.2200 H   0  0  0  0  0  0  0  0  0  0  0  0
    6.8710    8.9430   20.0240 O   0  0  0  0  0  0  0  0  0  0  0  0
    6.1560    9.5540   20.3430 H   0  0  0  0  0  0  0  0  0  0  0  0
    8.7640    7.8410   18.0190 C   0  0  0  0  0  2  0  0  0  0  0  0
    9.3750    8.4070   19.1460 O   0  0  0  0  0  0  0  0  0  0  0  0
    9.5910    9.3440   18.9010 H   0  0  0  0  0  0  0  0  0  0  0  0
  1  7  1  6  0  0  0
  1  6  1  0  0  0  0
  1  2  1  0  0  0  0
  2  9  1  6  0  0  0
  2  3  1  0  0  0  0
  3 11  1  6  0  0  0
  3  4  1  0  0  0  0
  4 13  1  1  0  0  0
  5 15  1  1  0  0  0
  5  4  1  0  0  0  0
  6  5  1  0  0  0  0
  8  7  1  0  0  0  0
 10  9  1  0  0  0  0
 12 11  1  0  0  0  0
 13 14  1  0  0  0  0
 15 16  1  0  0  0  0
 17 16  1  0  0  0  0
M  END
>  <MODEL>
15

>  <REMARK>
 VINA RESULT:    -4.568      3.635      4.744
 INTER + INTRA:          -5.550
 INTER:                  -5.345
 INTRA:                  -0.206
 UNBOUND:                -0.047
  Name = ALL
  6 active torsions:
  status: ('A' for Active; 'I' for Inactive)
    1  A    between atoms: C_1  and  O_7
    2  A    between atoms: C_2  and  O_8
    3  A    between atoms: C_3  and  O_9
    4  A    between atoms: C_4  and  O_10
    5  A    between atoms: C_5  and  C_6
    6  A    between atoms: C_6  and  O_12
                            x       y       z     vdW  Elec       q    Type
                         _______ _______ _______ _____ _____    ______ ____

>  <TORSDO>
F 6

$$$$
