ALL
 OpenBabel09132600393D

 17 17  0  0  1  0  0  0  0  0999 V2000
    7.2080   13.6640   18.3640 C   0  0  1  0  0  3  0  0  0  0  0  0
    8.3010   12.6130   18.0840 C   0  0  1  0  0  3  0  0  0  0  0  0
    9.1900   12.4000   19.3270 C   0  0  1  0  0  3  0  0  0  0  0  0
    9.6210   13.7510   19.9440 C   0  0  1  0  0  3  0  0  0  0  0  0
    8.4160   14.7180   20.0590 C   0  0  2  0  0  3  0  0  0  0  0  0
    7.7970   14.8780   18.7930 O   0  0  0  0  0  0  0  0  0  0  0  0
    6.4980   13.9040   17.1790 O   0  0  0  0  0  0  0  0  0  0  0  0
    7.1180   14.3860   16.5720 H   0  0  0  0  0  0  0  0  0  0  0  0
    7.7200   11.3900   17.7080 O   0  0  0  0  0  0  0  0  0  0  0  0
    7.0320   11.1750   18.3890 H   0  0  0  0  0  0  0  0  0  0  0  0
    8.5680   11.5670   20.2780 O   0  0  0  0  0  0  0  0  0  0  0  0
    9.2470   11.2920   20.9440 H   0  0  0  0  0  0  0  0  0  0  0  0
   10.1960   13.5380   21.2080 O   0  0  0  0  0  0  0  0  0  0  0  0
   11.1790   13.6230   21.0930 H   0  0  0  0  0  0  0  0  0  0  0  0
    8.8580   16.1050   20.5460 C   0  0  0  0  0  2  0  0  0  0  0  0
    9.0570   16.0990   21.9330 O   0  0  0  0  0  0  0  0  0  0  0  0
    9.8890   15.5810   22.0880 H   0  0  0  0  0  0  0  0  0  0  0  0
  1  7  1  6  0  0  0
  1  6  1  0  0  0  0
  2  9  1  1  0  0  0
  2  1  1  0  0  0  0
  2  3  1  0  0  0  0
  3  4  1  0  0  0  0
  3 11  1  1  0  0  0
  4  5  1  0  0  0  0
  4 13  1  1  0  0  0
  5 15  1  6  0  0  0
  6  5  1  0  0  0  0
  8  7  1  0  0  0  0
  9 10  1  0  0  0  0
 11 12  1  0  0  0  0
 14 13  1  0  0  0  0
 15 16  1  0  0  0  0
 16 17  1  0  0  0  0
M  END
>  <MODEL>
11

>  <REMARK>
 VINA RESULT:    -4.657      2.692      4.359
 INTER + INTRA:          -5.657
 INTER:                  -5.413
 INTRA:                  -0.244
 UNBOUND:                -0.047
  Name = ALL
  6 active torsions:
  status: ('A' for Active; 'I' for Inactive)
    1  A    between atoms: C_1  and  O_7
    2  A    between atoms: C_2  and  O_8
    3  A    between atoms: C_3  and  O_9
    4  A    between atoms: C_4  and  O_10
    5  A    between atoms: C_5  and  C_6
    6  A    between atoms: C_6  and  O_12
                            x       y       z     vdW  Elec       q    Type
                         _______ _______ _______ _____ _____    ______ ____

>  <TORSDO>
F 6

$$$$
