ALL
 OpenBabel09132600393D

 17 17  0  0  1  0  0  0  0  0999 V2000
    8.9200    9.9080   19.5260 C   0  0  1  0  0  3  0  0  0  0  0  0
    8.8350   11.4370   19.3450 C   0  0  1  0  0  3  0  0  0  0  0  0
    7.3760   11.9240   19.4570 C   0  0  1  0  0  3  0  0  0  0  0  0
    6.4250   11.0390   18.6190 C   0  0  1  0  0  3  0  0  0  0  0  0
    6.7180    9.5350   18.8520 C   0  0  2  0  0  3  0  0  0  0  0  0
    8.0840    9.2580   18.5860 O   0  0  0  0  0  0  0  0  0  0  0  0
   10.2430    9.5000   19.3070 O   0  0  0  0  0  0  0  0  0  0  0  0
   10.3230    8.5880   19.6900 H   0  0  0  0  0  0  0  0  0  0  0  0
    9.6230   12.0890   20.3080 O   0  0  0  0  0  0  0  0  0  0  0  0
    9.4340   11.6540   21.1790 H   0  0  0  0  0  0  0  0  0  0  0  0
    6.9570   12.0140   20.7990 O   0  0  0  0  0  0  0  0  0  0  0  0
    6.9730   12.9670   21.0690 H   0  0  0  0  0  0  0  0  0  0  0  0
    5.0890   11.3280   18.9450 O   0  0  0  0  0  0  0  0  0  0  0  0
    4.8940   12.2290   18.5740 H   0  0  0  0  0  0  0  0  0  0  0  0
    5.8710    8.6510   17.9250 C   0  0  0  0  0  2  0  0  0  0  0  0
    5.4360    9.3830   16.8120 O   0  0  0  0  0  0  0  0  0  0  0  0
    6.2450    9.5630   16.2680 H   0  0  0  0  0  0  0  0  0  0  0  0
  1  7  1  6  0  0  0
  2  3  1  0  0  0  0
  2  1  1  0  0  0  0
  2  9  1  1  0  0  0
  3 11  1  1  0  0  0
  4  5  1  0  0  0  0
  4 13  1  1  0  0  0
  4  3  1  0  0  0  0
  5 15  1  6  0  0  0
  6  5  1  0  0  0  0
  6  1  1  0  0  0  0
  7  8  1  0  0  0  0
  9 10  1  0  0  0  0
 11 12  1  0  0  0  0
 14 13  1  0  0  0  0
 16 15  1  0  0  0  0
 17 16  1  0  0  0  0
M  END
>  <MODEL>
5

>  <REMARK>
 VINA RESULT:    -4.848      2.226      3.968
 INTER + INTRA:          -5.887
 INTER:                  -5.634
 INTRA:                  -0.253
 UNBOUND:                -0.047
  Name = ALL
  6 active torsions:
  status: ('A' for Active; 'I' for Inactive)
    1  A    between atoms: C_1  and  O_7
    2  A    between atoms: C_2  and  O_8
    3  A    between atoms: C_3  and  O_9
    4  A    between atoms: C_4  and  O_10
    5  A    between atoms: C_5  and  C_6
    6  A    between atoms: C_6  and  O_12
                            x       y       z     vdW  Elec       q    Type
                         _______ _______ _______ _____ _____    ______ ____

>  <TORSDO>
F 6

$$$$
