ALL
 OpenBabel09132600393D

 17 17  0  0  1  0  0  0  0  0999 V2000
    4.8990   25.0810   24.5990 C   0  0  1  0  0  3  0  0  0  0  0  0
    4.8310   23.6190   24.1140 C   0  0  1  0  0  3  0  0  0  0  0  0
    3.4060   23.0510   24.2770 C   0  0  1  0  0  3  0  0  0  0  0  0
    2.8300   23.3810   25.6730 C   0  0  1  0  0  3  0  0  0  0  0  0
    3.0740   24.8680   26.0370 C   0  0  2  0  0  3  0  0  0  0  0  0
    4.4570   25.1710   25.9410 O   0  0  0  0  0  0  0  0  0  0  0  0
    6.2300   25.5170   24.5350 O   0  0  0  0  0  0  0  0  0  0  0  0
    6.6850   24.9350   23.8730 H   0  0  0  0  0  0  0  0  0  0  0  0
    5.2200   23.5310   22.7670 O   0  0  0  0  0  0  0  0  0  0  0  0
    4.9830   22.6190   22.4560 H   0  0  0  0  0  0  0  0  0  0  0  0
    2.5510   23.4810   23.2440 O   0  0  0  0  0  0  0  0  0  0  0  0
    3.1000   23.9140   22.5430 H   0  0  0  0  0  0  0  0  0  0  0  0
    1.4540   23.0950   25.7040 O   0  0  0  0  0  0  0  0  0  0  0  0
    1.2820   22.6130   26.5550 H   0  0  0  0  0  0  0  0  0  0  0  0
    2.6250   25.1720   27.4730 C   0  0  0  0  0  2  0  0  0  0  0  0
    1.2410   25.3850   27.5200 O   0  0  0  0  0  0  0  0  0  0  0  0
    0.9300   24.9850   28.3740 H   0  0  0  0  0  0  0  0  0  0  0  0
  1  7  1  1  0  0  0
  1  6  1  0  0  0  0
  2  9  1  6  0  0  0
  2  3  1  0  0  0  0
  2  1  1  0  0  0  0
  3 11  1  6  0  0  0
  3  4  1  0  0  0  0
  4 13  1  6  0  0  0
  4  5  1  0  0  0  0
  5 15  1  1  0  0  0
  6  5  1  0  0  0  0
  8  7  1  0  0  0  0
 10  9  1  0  0  0  0
 12 11  1  0  0  0  0
 13 14  1  0  0  0  0
 15 16  1  0  0  0  0
 16 17  1  0  0  0  0
M  END
>  <MODEL>
10

>  <REMARK>
 VINA RESULT:    -4.663     12.470     14.441
 INTER + INTRA:          -5.665
 INTER:                  -5.420
 INTRA:                  -0.245
 UNBOUND:                -0.047
  Name = ALL
  6 active torsions:
  status: ('A' for Active; 'I' for Inactive)
    1  A    between atoms: C_1  and  O_7
    2  A    between atoms: C_2  and  O_8
    3  A    between atoms: C_3  and  O_9
    4  A    between atoms: C_4  and  O_10
    5  A    between atoms: C_5  and  C_6
    6  A    between atoms: C_6  and  O_12
                            x       y       z     vdW  Elec       q    Type
                         _______ _______ _______ _____ _____    ______ ____

>  <TORSDO>
F 6

$$$$
