ALL
 OpenBabel09132600393D

 17 17  0  0  1  0  0  0  0  0999 V2000
    9.1460   12.1020   18.2520 C   0  0  1  0  0  3  0  0  0  0  0  0
    7.6260   11.8850   18.3940 C   0  0  1  0  0  3  0  0  0  0  0  0
    6.8920   13.2320   18.5590 C   0  0  1  0  0  3  0  0  0  0  0  0
    7.5980   14.1300   19.6000 C   0  0  1  0  0  3  0  0  0  0  0  0
    9.1300   14.1520   19.3650 C   0  0  2  0  0  3  0  0  0  0  0  0
    9.6410   12.8290   19.3620 O   0  0  0  0  0  0  0  0  0  0  0  0
    9.7790   10.8510   18.2160 O   0  0  0  0  0  0  0  0  0  0  0  0
   10.3810   10.8640   17.4270 H   0  0  0  0  0  0  0  0  0  0  0  0
    7.1200   11.2090   17.2710 O   0  0  0  0  0  0  0  0  0  0  0  0
    6.7100   11.8940   16.6810 H   0  0  0  0  0  0  0  0  0  0  0  0
    6.7280   13.8920   17.3250 O   0  0  0  0  0  0  0  0  0  0  0  0
    6.1010   13.3650   16.7690 H   0  0  0  0  0  0  0  0  0  0  0  0
    7.0800   15.4340   19.5380 O   0  0  0  0  0  0  0  0  0  0  0  0
    7.2310   15.8440   20.4300 H   0  0  0  0  0  0  0  0  0  0  0  0
    9.8530   14.9320   20.4720 C   0  0  0  0  0  2  0  0  0  0  0  0
   10.4990   14.0520   21.3510 O   0  0  0  0  0  0  0  0  0  0  0  0
   10.2170   14.3200   22.2640 H   0  0  0  0  0  0  0  0  0  0  0  0
  1  7  1  1  0  0  0
  1  2  1  0  0  0  0
  1  6  1  0  0  0  0
  2  9  1  6  0  0  0
  2  3  1  0  0  0  0
  3 11  1  6  0  0  0
  3  4  1  0  0  0  0
  4 13  1  6  0  0  0
  5  4  1  0  0  0  0
  5 15  1  1  0  0  0
  6  5  1  0  0  0  0
  8  7  1  0  0  0  0
 10  9  1  0  0  0  0
 12 11  1  0  0  0  0
 13 14  1  0  0  0  0
 15 16  1  0  0  0  0
 16 17  1  0  0  0  0
M  END
>  <MODEL>
20

>  <REMARK>
 VINA RESULT:    -4.419      2.248      4.060
 INTER + INTRA:          -5.370
 INTER:                  -5.322
 INTRA:                  -0.048
 UNBOUND:                -0.047
  Name = ALL
  6 active torsions:
  status: ('A' for Active; 'I' for Inactive)
    1  A    between atoms: C_1  and  O_7
    2  A    between atoms: C_2  and  O_8
    3  A    between atoms: C_3  and  O_9
    4  A    between atoms: C_4  and  O_10
    5  A    between atoms: C_5  and  C_6
    6  A    between atoms: C_6  and  O_12
                            x       y       z     vdW  Elec       q    Type
                         _______ _______ _______ _____ _____    ______ ____

>  <TORSDO>
F 6

$$$$
