ALL
 OpenBabel09132600393D

 17 17  0  0  1  0  0  0  0  0999 V2000
    7.6230   14.3790   17.9700 C   0  0  1  0  0  3  0  0  0  0  0  0
    6.1480   14.0540   18.2760 C   0  0  1  0  0  3  0  0  0  0  0  0
    6.0390   12.9510   19.3490 C   0  0  1  0  0  3  0  0  0  0  0  0
    6.9940   11.7750   19.0400 C   0  0  1  0  0  3  0  0  0  0  0  0
    8.4040   12.2910   18.6570 C   0  0  2  0  0  3  0  0  0  0  0  0
    8.3110   13.2050   17.5760 O   0  0  0  0  0  0  0  0  0  0  0  0
    7.6730   15.3030   16.9160 O   0  0  0  0  0  0  0  0  0  0  0  0
    7.9650   14.7970   16.1130 H   0  0  0  0  0  0  0  0  0  0  0  0
    5.4730   15.2050   18.7160 O   0  0  0  0  0  0  0  0  0  0  0  0
    5.7980   15.9610   18.1610 H   0  0  0  0  0  0  0  0  0  0  0  0
    6.2430   13.4620   20.6460 O   0  0  0  0  0  0  0  0  0  0  0  0
    7.0510   13.0350   21.0270 H   0  0  0  0  0  0  0  0  0  0  0  0
    7.0760   10.9200   20.1520 O   0  0  0  0  0  0  0  0  0  0  0  0
    8.0230   10.6250   20.2160 H   0  0  0  0  0  0  0  0  0  0  0  0
    9.3200   11.1390   18.2200 C   0  0  0  0  0  2  0  0  0  0  0  0
    9.8980   10.5200   19.3370 O   0  0  0  0  0  0  0  0  0  0  0  0
    9.1530   10.0810   19.8240 H   0  0  0  0  0  0  0  0  0  0  0  0
  1  7  1  6  0  0  0
  1  2  1  0  0  0  0
  2  9  1  1  0  0  0
  2  3  1  0  0  0  0
  3 11  1  1  0  0  0
  4  3  1  0  0  0  0
  4 13  1  1  0  0  0
  5 15  1  6  0  0  0
  5  4  1  0  0  0  0
  6  1  1  0  0  0  0
  6  5  1  0  0  0  0
  8  7  1  0  0  0  0
 10  9  1  0  0  0  0
 11 12  1  0  0  0  0
 13 14  1  0  0  0  0
 15 16  1  0  0  0  0
 16 17  1  0  0  0  0
M  END
>  <MODEL>
8

>  <REMARK>
 VINA RESULT:    -4.797      1.455      2.927
 INTER + INTRA:          -5.826
 INTER:                  -5.582
 INTRA:                  -0.244
 UNBOUND:                -0.047
  Name = ALL
  6 active torsions:
  status: ('A' for Active; 'I' for Inactive)
    1  A    between atoms: C_1  and  O_7
    2  A    between atoms: C_2  and  O_8
    3  A    between atoms: C_3  and  O_9
    4  A    between atoms: C_4  and  O_10
    5  A    between atoms: C_5  and  C_6
    6  A    between atoms: C_6  and  O_12
                            x       y       z     vdW  Elec       q    Type
                         _______ _______ _______ _____ _____    ______ ____

>  <TORSDO>
F 6

$$$$
