ALL
 OpenBabel09132600393D

 17 17  0  0  1  0  0  0  0  0999 V2000
    9.9990   19.2370   15.1060 C   0  0  1  0  0  3  0  0  0  0  0  0
    8.7130   18.8730   14.3360 C   0  0  1  0  0  3  0  0  0  0  0  0
    8.6550   17.3590   14.0480 C   0  0  1  0  0  3  0  0  0  0  0  0
   10.0030   16.8430   13.4950 C   0  0  1  0  0  3  0  0  0  0  0  0
   11.1900   17.3860   14.3310 C   0  0  2  0  0  3  0  0  0  0  0  0
   11.1390   18.8030   14.3850 O   0  0  0  0  0  0  0  0  0  0  0  0
   10.0620   20.6300   15.2470 O   0  0  0  0  0  0  0  0  0  0  0  0
   10.2920   20.8060   16.1970 H   0  0  0  0  0  0  0  0  0  0  0  0
    7.5780   19.2550   15.0710 O   0  0  0  0  0  0  0  0  0  0  0  0
    6.7850   18.9920   14.5360 H   0  0  0  0  0  0  0  0  0  0  0  0
    8.2400   16.6280   15.1780 O   0  0  0  0  0  0  0  0  0  0  0  0
    7.2550   16.5300   15.1430 H   0  0  0  0  0  0  0  0  0  0  0  0
   10.0140   15.4380   13.4940 O   0  0  0  0  0  0  0  0  0  0  0  0
   10.4810   15.1550   14.3250 H   0  0  0  0  0  0  0  0  0  0  0  0
   12.5370   16.9890   13.7110 C   0  0  0  0  0  2  0  0  0  0  0  0
   12.3930   16.7440   12.3390 O   0  0  0  0  0  0  0  0  0  0  0  0
   11.4170   16.7310   12.1630 H   0  0  0  0  0  0  0  0  0  0  0  0
  1  7  1  6  0  0  0
  2  9  1  1  0  0  0
  2  1  1  0  0  0  0
  3  2  1  0  0  0  0
  3 11  1  1  0  0  0
  4 13  1  1  0  0  0
  4  3  1  0  0  0  0
  4  5  1  0  0  0  0
  5 15  1  6  0  0  0
  5  6  1  0  0  0  0
  6  1  1  0  0  0  0
  7  8  1  0  0  0  0
 10  9  1  0  0  0  0
 12 11  1  0  0  0  0
 13 14  1  0  0  0  0
 16 15  1  0  0  0  0
 17 16  1  0  0  0  0
M  END
>  <MODEL>
13

>  <REMARK>
 VINA RESULT:    -4.596      6.935      8.399
 INTER + INTRA:          -5.584
 INTER:                  -5.330
 INTRA:                  -0.254
 UNBOUND:                -0.047
  Name = ALL
  6 active torsions:
  status: ('A' for Active; 'I' for Inactive)
    1  A    between atoms: C_1  and  O_7
    2  A    between atoms: C_2  and  O_8
    3  A    between atoms: C_3  and  O_9
    4  A    between atoms: C_4  and  O_10
    5  A    between atoms: C_5  and  C_6
    6  A    between atoms: C_6  and  O_12
                            x       y       z     vdW  Elec       q    Type
                         _______ _______ _______ _____ _____    ______ ____

>  <TORSDO>
F 6

$$$$
