ALL
 OpenBabel09132600393D

 17 17  0  0  1  0  0  0  0  0999 V2000
    5.2210   12.4320   19.1950 C   0  0  1  0  0  3  0  0  0  0  0  0
    5.9630   13.7830   19.1960 C   0  0  1  0  0  3  0  0  0  0  0  0
    7.1900   13.7380   18.2630 C   0  0  1  0  0  3  0  0  0  0  0  0
    8.0200   12.4530   18.4920 C   0  0  1  0  0  3  0  0  0  0  0  0
    7.1020   11.2060   18.5610 C   0  0  2  0  0  3  0  0  0  0  0  0
    6.1070   11.3880   19.5560 O   0  0  0  0  0  0  0  0  0  0  0  0
    4.1830   12.4850   20.1360 O   0  0  0  0  0  0  0  0  0  0  0  0
    3.7040   13.3400   19.9780 H   0  0  0  0  0  0  0  0  0  0  0  0
    5.1010   14.8160   18.7890 O   0  0  0  0  0  0  0  0  0  0  0  0
    5.3710   15.6310   19.2860 H   0  0  0  0  0  0  0  0  0  0  0  0
    6.8240   13.8890   16.9110 O   0  0  0  0  0  0  0  0  0  0  0  0
    7.4180   14.5660   16.5000 H   0  0  0  0  0  0  0  0  0  0  0  0
    8.9650   12.3030   17.4640 O   0  0  0  0  0  0  0  0  0  0  0  0
    8.7030   11.4940   16.9510 H   0  0  0  0  0  0  0  0  0  0  0  0
    7.9010    9.9450   18.9210 C   0  0  0  0  0  2  0  0  0  0  0  0
    7.2580    9.2320   19.9420 O   0  0  0  0  0  0  0  0  0  0  0  0
    6.9740    9.9060   20.6120 H   0  0  0  0  0  0  0  0  0  0  0  0
  1  2  1  0  0  0  0
  1  6  1  0  0  0  0
  1  7  1  1  0  0  0
  2  9  1  6  0  0  0
  3 11  1  6  0  0  0
  3  4  1  0  0  0  0
  3  2  1  0  0  0  0
  4 13  1  6  0  0  0
  4  5  1  0  0  0  0
  5 15  1  1  0  0  0
  5  6  1  0  0  0  0
  8  7  1  0  0  0  0
  9 10  1  0  0  0  0
 12 11  1  0  0  0  0
 14 13  1  0  0  0  0
 15 16  1  0  0  0  0
 16 17  1  0  0  0  0
M  END
>  <MODEL>
1

>  <REMARK>
 VINA RESULT:    -5.116      0.000      0.000
 INTER + INTRA:          -6.209
 INTER:                  -6.162
 INTRA:                  -0.047
 UNBOUND:                -0.047
  Name = ALL
  6 active torsions:
  status: ('A' for Active; 'I' for Inactive)
    1  A    between atoms: C_1  and  O_7
    2  A    between atoms: C_2  and  O_8
    3  A    between atoms: C_3  and  O_9
    4  A    between atoms: C_4  and  O_10
    5  A    between atoms: C_5  and  C_6
    6  A    between atoms: C_6  and  O_12
                            x       y       z     vdW  Elec       q    Type
                         _______ _______ _______ _____ _____    ______ ____

>  <TORSDO>
F 6

$$$$
