ALL
 OpenBabel09132600393D

 17 17  0  0  1  0  0  0  0  0999 V2000
    5.3910   14.1680   18.8300 C   0  0  1  0  0  3  0  0  0  0  0  0
    5.2060   12.6550   19.0620 C   0  0  1  0  0  3  0  0  0  0  0  0
    6.5510   11.9840   19.4080 C   0  0  1  0  0  3  0  0  0  0  0  0
    7.6690   12.4400   18.4420 C   0  0  1  0  0  3  0  0  0  0  0  0
    7.6420   13.9780   18.2500 C   0  0  2  0  0  3  0  0  0  0  0  0
    6.3560   14.3930   17.8190 O   0  0  0  0  0  0  0  0  0  0  0  0
    4.1680   14.7140   18.4120 O   0  0  0  0  0  0  0  0  0  0  0  0
    3.4800   14.0180   18.5760 H   0  0  0  0  0  0  0  0  0  0  0  0
    4.2870   12.4270   20.1000 O   0  0  0  0  0  0  0  0  0  0  0  0
    3.7610   13.2620   20.2100 H   0  0  0  0  0  0  0  0  0  0  0  0
    6.9080   12.1930   20.7550 O   0  0  0  0  0  0  0  0  0  0  0  0
    7.8850   12.3500   20.7990 H   0  0  0  0  0  0  0  0  0  0  0  0
    8.9210   12.0340   18.9320 O   0  0  0  0  0  0  0  0  0  0  0  0
    8.8650   12.0670   19.9230 H   0  0  0  0  0  0  0  0  0  0  0  0
    8.6600   14.4250   17.1920 C   0  0  0  0  0  2  0  0  0  0  0  0
    8.0320   15.1910   16.2000 O   0  0  0  0  0  0  0  0  0  0  0  0
    7.4280   15.8170   16.6780 H   0  0  0  0  0  0  0  0  0  0  0  0
  1  7  1  6  0  0  0
  1  2  1  0  0  0  0
  2  3  1  0  0  0  0
  2  9  1  1  0  0  0
  3 11  1  1  0  0  0
  4 13  1  1  0  0  0
  4  3  1  0  0  0  0
  5 15  1  6  0  0  0
  5  4  1  0  0  0  0
  6  5  1  0  0  0  0
  6  1  1  0  0  0  0
  7  8  1  0  0  0  0
  9 10  1  0  0  0  0
 11 12  1  0  0  0  0
 13 14  1  0  0  0  0
 16 17  1  0  0  0  0
 16 15  1  0  0  0  0
M  END
>  <MODEL>
3

>  <REMARK>
 VINA RESULT:    -4.948      1.465      3.413
 INTER + INTRA:          -6.008
 INTER:                  -5.961
 INTRA:                  -0.047
 UNBOUND:                -0.047
  Name = ALL
  6 active torsions:
  status: ('A' for Active; 'I' for Inactive)
    1  A    between atoms: C_1  and  O_7
    2  A    between atoms: C_2  and  O_8
    3  A    between atoms: C_3  and  O_9
    4  A    between atoms: C_4  and  O_10
    5  A    between atoms: C_5  and  C_6
    6  A    between atoms: C_6  and  O_12
                            x       y       z     vdW  Elec       q    Type
                         _______ _______ _______ _____ _____    ______ ____

>  <TORSDO>
F 6

$$$$
