ALL
 OpenBabel09132600393D

 17 17  0  0  1  0  0  0  0  0999 V2000
    6.9420   15.5930   18.9430 C   0  0  1  0  0  3  0  0  0  0  0  0
    6.2440   14.3120   18.4450 C   0  0  1  0  0  3  0  0  0  0  0  0
    6.6020   13.1070   19.3400 C   0  0  1  0  0  3  0  0  0  0  0  0
    8.1220   13.0460   19.6140 C   0  0  1  0  0  3  0  0  0  0  0  0
    8.6710   14.4420   20.0070 C   0  0  2  0  0  3  0  0  0  0  0  0
    8.3430   15.3930   19.0060 O   0  0  0  0  0  0  0  0  0  0  0  0
    6.6780   16.6320   18.0400 O   0  0  0  0  0  0  0  0  0  0  0  0
    5.6940   16.6450   17.9060 H   0  0  0  0  0  0  0  0  0  0  0  0
    4.8510   14.4870   18.4290 O   0  0  0  0  0  0  0  0  0  0  0  0
    4.6520   15.1700   17.7370 H   0  0  0  0  0  0  0  0  0  0  0  0
    5.8550   13.1040   20.5340 O   0  0  0  0  0  0  0  0  0  0  0  0
    5.6310   12.1660   20.7610 H   0  0  0  0  0  0  0  0  0  0  0  0
    8.3880   12.1170   20.6340 O   0  0  0  0  0  0  0  0  0  0  0  0
    7.9930   11.2530   20.3430 H   0  0  0  0  0  0  0  0  0  0  0  0
   10.1990   14.4200   20.1510 C   0  0  0  0  0  2  0  0  0  0  0  0
   10.5660   13.9280   21.4110 O   0  0  0  0  0  0  0  0  0  0  0  0
   11.2610   13.2400   21.2460 H   0  0  0  0  0  0  0  0  0  0  0  0
  1  7  1  6  0  0  0
  1  6  1  0  0  0  0
  2  9  1  1  0  0  0
  2  1  1  0  0  0  0
  2  3  1  0  0  0  0
  3  4  1  0  0  0  0
  3 11  1  1  0  0  0
  4  5  1  0  0  0  0
  4 13  1  1  0  0  0
  5 15  1  6  0  0  0
  6  5  1  0  0  0  0
  8  7  1  0  0  0  0
 10  9  1  0  0  0  0
 11 12  1  0  0  0  0
 14 13  1  0  0  0  0
 15 16  1  0  0  0  0
 17 16  1  0  0  0  0
M  END
>  <MODEL>
7

>  <REMARK>
 VINA RESULT:    -4.817      2.434      3.753
 INTER + INTRA:          -5.850
 INTER:                  -5.605
 INTRA:                  -0.245
 UNBOUND:                -0.047
  Name = ALL
  6 active torsions:
  status: ('A' for Active; 'I' for Inactive)
    1  A    between atoms: C_1  and  O_7
    2  A    between atoms: C_2  and  O_8
    3  A    between atoms: C_3  and  O_9
    4  A    between atoms: C_4  and  O_10
    5  A    between atoms: C_5  and  C_6
    6  A    between atoms: C_6  and  O_12
                            x       y       z     vdW  Elec       q    Type
                         _______ _______ _______ _____ _____    ______ ____

>  <TORSDO>
F 6

$$$$
