ALL
 OpenBabel09132600393D

 17 17  0  0  1  0  0  0  0  0999 V2000
    9.6620   14.1590   19.9560 C   0  0  1  0  0  3  0  0  0  0  0  0
    8.9640   12.7920   19.8110 C   0  0  1  0  0  3  0  0  0  0  0  0
    8.1440   12.7300   18.5060 C   0  0  1  0  0  3  0  0  0  0  0  0
    7.2900   14.0050   18.3210 C   0  0  1  0  0  3  0  0  0  0  0  0
    8.1280   15.2790   18.6020 C   0  0  2  0  0  3  0  0  0  0  0  0
    8.7090   15.2040   19.8940 O   0  0  0  0  0  0  0  0  0  0  0  0
   10.3020   14.2090   21.2030 O   0  0  0  0  0  0  0  0  0  0  0  0
    9.8610   13.5270   21.7730 H   0  0  0  0  0  0  0  0  0  0  0  0
    9.9100   11.7540   19.8210 O   0  0  0  0  0  0  0  0  0  0  0  0
    9.7510   11.2240   20.6440 H   0  0  0  0  0  0  0  0  0  0  0  0
    8.9610   12.4820   17.3870 O   0  0  0  0  0  0  0  0  0  0  0  0
    9.0840   13.3320   16.8940 H   0  0  0  0  0  0  0  0  0  0  0  0
    6.7680   14.0470   17.0170 O   0  0  0  0  0  0  0  0  0  0  0  0
    6.2500   14.8920   16.9440 H   0  0  0  0  0  0  0  0  0  0  0  0
    7.2570   16.5420   18.5510 C   0  0  0  0  0  2  0  0  0  0  0  0
    5.9050   16.2140   18.7180 O   0  0  0  0  0  0  0  0  0  0  0  0
    5.7430   16.2070   19.6970 H   0  0  0  0  0  0  0  0  0  0  0  0
  1  7  1  1  0  0  0
  2  9  1  6  0  0  0
  2  1  1  0  0  0  0
  3 11  1  6  0  0  0
  3  2  1  0  0  0  0
  4 13  1  6  0  0  0
  4  3  1  0  0  0  0
  4  5  1  0  0  0  0
  5 15  1  1  0  0  0
  5  6  1  0  0  0  0
  6  1  1  0  0  0  0
  7  8  1  0  0  0  0
  9 10  1  0  0  0  0
 12 11  1  0  0  0  0
 14 13  1  0  0  0  0
 15 16  1  0  0  0  0
 16 17  1  0  0  0  0
M  END
>  <MODEL>
16

>  <REMARK>
 VINA RESULT:    -4.558      2.425      4.689
 INTER + INTRA:          -5.537
 INTER:                  -5.285
 INTRA:                  -0.252
 UNBOUND:                -0.047
  Name = ALL
  6 active torsions:
  status: ('A' for Active; 'I' for Inactive)
    1  A    between atoms: C_1  and  O_7
    2  A    between atoms: C_2  and  O_8
    3  A    between atoms: C_3  and  O_9
    4  A    between atoms: C_4  and  O_10
    5  A    between atoms: C_5  and  C_6
    6  A    between atoms: C_6  and  O_12
                            x       y       z     vdW  Elec       q    Type
                         _______ _______ _______ _____ _____    ______ ____

>  <TORSDO>
F 6

$$$$
