ALL
 OpenBabel09132600393D

 17 17  0  0  1  0  0  0  0  0999 V2000
    9.3120   11.4790   17.7990 C   0  0  1  0  0  3  0  0  0  0  0  0
    9.3540   12.8730   18.4550 C   0  0  1  0  0  3  0  0  0  0  0  0
    8.5470   12.8860   19.7700 C   0  0  1  0  0  3  0  0  0  0  0  0
    7.1690   12.2100   19.5870 C   0  0  1  0  0  3  0  0  0  0  0  0
    7.3070   10.8680   18.8230 C   0  0  2  0  0  3  0  0  0  0  0  0
    7.9710   11.0780   17.5870 O   0  0  0  0  0  0  0  0  0  0  0  0
    9.9630   11.5430   16.5590 O   0  0  0  0  0  0  0  0  0  0  0  0
    9.2520   11.6540   15.8750 H   0  0  0  0  0  0  0  0  0  0  0  0
   10.6800   13.2540   18.7150 O   0  0  0  0  0  0  0  0  0  0  0  0
   10.6480   14.1590   19.1210 H   0  0  0  0  0  0  0  0  0  0  0  0
    9.2720   12.3150   20.8340 O   0  0  0  0  0  0  0  0  0  0  0  0
    8.8270   11.4700   21.0980 H   0  0  0  0  0  0  0  0  0  0  0  0
    6.5700   11.9940   20.8400 O   0  0  0  0  0  0  0  0  0  0  0  0
    6.9320   12.6880   21.4520 H   0  0  0  0  0  0  0  0  0  0  0  0
    5.9330   10.2550   18.5200 C   0  0  0  0  0  2  0  0  0  0  0  0
    4.9100   11.1540   18.8510 O   0  0  0  0  0  0  0  0  0  0  0  0
    4.3830   11.2890   18.0210 H   0  0  0  0  0  0  0  0  0  0  0  0
  1  7  1  6  0  0  0
  1  2  1  0  0  0  0
  2  9  1  1  0  0  0
  2  3  1  0  0  0  0
  3 11  1  1  0  0  0
  4  3  1  0  0  0  0
  4 13  1  1  0  0  0
  5 15  1  6  0  0  0
  5  4  1  0  0  0  0
  6  1  1  0  0  0  0
  6  5  1  0  0  0  0
  8  7  1  0  0  0  0
  9 10  1  0  0  0  0
 11 12  1  0  0  0  0
 13 14  1  0  0  0  0
 15 16  1  0  0  0  0
 17 16  1  0  0  0  0
M  END
>  <MODEL>
6

>  <REMARK>
 VINA RESULT:    -4.822      2.159      3.908
 INTER + INTRA:          -5.856
 INTER:                  -5.636
 INTRA:                  -0.220
 UNBOUND:                -0.047
  Name = ALL
  6 active torsions:
  status: ('A' for Active; 'I' for Inactive)
    1  A    between atoms: C_1  and  O_7
    2  A    between atoms: C_2  and  O_8
    3  A    between atoms: C_3  and  O_9
    4  A    between atoms: C_4  and  O_10
    5  A    between atoms: C_5  and  C_6
    6  A    between atoms: C_6  and  O_12
                            x       y       z     vdW  Elec       q    Type
                         _______ _______ _______ _____ _____    ______ ____

>  <TORSDO>
F 6

$$$$
