
     RDKit          3D

 27 28  0  0  0  0  0  0  0  0999 V2000
    2.7098   -1.7711   -1.0162 N   0  0  0  0  0  0  0  0  0  0  0  0
    1.6643   -1.4476   -0.1937 C   0  0  0  0  0  0  0  0  0  0  0  0
    0.8628   -2.2978    0.1650 O   0  0  0  0  0  0  0  0  0  0  0  0
    1.5635   -0.0176    0.2078 C   0  0  0  0  0  0  0  0  0  0  0  0
    2.7438    0.6588    0.5649 C   0  0  0  0  0  0  0  0  0  0  0  0
    2.7006    1.9960    0.9573 C   0  0  0  0  0  0  0  0  0  0  0  0
    1.4820    2.6653    1.0001 C   0  0  0  0  0  0  0  0  0  0  0  0
    0.3049    1.9977    0.6544 C   0  0  0  0  0  0  0  0  0  0  0  0
    0.3192    0.6458    0.2567 C   0  0  0  0  0  0  0  0  0  0  0  0
   -0.9555    0.0031   -0.1205 C   0  0  0  0  0  0  0  0  0  0  0  0
   -1.2748   -0.1213   -1.4888 C   0  0  0  0  0  0  0  0  0  0  0  0
   -2.4666   -0.7207   -1.9007 C   0  0  0  0  0  0  0  0  0  0  0  0
   -3.3624   -1.2081   -0.9551 C   0  0  0  0  0  0  0  0  0  0  0  0
   -3.0678   -1.0910    0.4043 C   0  0  0  0  0  0  0  0  0  0  0  0
   -1.8766   -0.4805    0.8386 C   0  0  0  0  0  0  0  0  0  0  0  0
   -1.6079   -0.3834    2.1929 N   0  0  0  0  0  0  0  0  0  0  0  0
   -2.5071    0.1968    2.8151 O   0  0  0  0  0  0  0  0  0  0  0  0
    3.2609   -1.0718   -1.4931 H   0  0  0  0  0  0  0  0  0  0  0  0
    2.7236   -2.7175   -1.3746 H   0  0  0  0  0  0  0  0  0  0  0  0
    3.6992    0.1393    0.5677 H   0  0  0  0  0  0  0  0  0  0  0  0
    3.6147    2.5112    1.2426 H   0  0  0  0  0  0  0  0  0  0  0  0
    1.4418    3.7060    1.3131 H   0  0  0  0  0  0  0  0  0  0  0  0
   -0.6391    2.5394    0.7029 H   0  0  0  0  0  0  0  0  0  0  0  0
   -0.5840    0.2482   -2.2443 H   0  0  0  0  0  0  0  0  0  0  0  0
   -2.6902   -0.8132   -2.9607 H   0  0  0  0  0  0  0  0  0  0  0  0
   -4.2870   -1.6841   -1.2715 H   0  0  0  0  0  0  0  0  0  0  0  0
   -3.7721   -1.4819    1.1359 H   0  0  0  0  0  0  0  0  0  0  0  0
  1  2  1  0
  2  3  2  0
  2  4  1  0
  4  5  2  0
  5  6  1  0
  6  7  2  0
  7  8  1  0
  8  9  2  0
  9 10  1  0
 10 11  2  0
 11 12  1  0
 12 13  2  0
 13 14  1  0
 14 15  2  0
 15 16  1  0
 16 17  2  0
  9  4  1  0
 15 10  1  0
  1 18  1  0
  1 19  1  0
  5 20  1  0
  6 21  1  0
  7 22  1  0
  8 23  1  0
 11 24  1  0
 12 25  1  0
 13 26  1  0
 14 27  1  0
M  END
$$$$
