
     RDKit          3D

 10  9  0  0  0  0  0  0  0  0999 V2000
   -1.9430   -1.1083    1.0793 O   0  0  0  0  0  0  0  0  0  0  0  0
   -1.4316   -0.0392    1.4350 N   0  0  0  0  0  0  0  0  0  0  0  0
   -0.6094    0.7723    0.1625 S   0  0  0  0  0  0  0  0  0  0  0  0
   -1.5740    0.9940   -0.8963 O   0  0  0  0  0  0  0  0  0  0  0  0
    0.1010    1.8723    0.7901 O   0  0  0  0  0  0  0  0  0  0  0  0
    0.6157   -0.4411   -0.3685 C   0  0  0  0  0  0  0  0  0  0  0  0
    1.6746   -0.7525    0.5589 O   0  0  0  0  0  0  0  0  0  0  0  0
    1.0802   -0.0315   -1.2708 H   0  0  0  0  0  0  0  0  0  0  0  0
    0.0979   -1.3648   -0.6395 H   0  0  0  0  0  0  0  0  0  0  0  0
    1.9886    0.0987    0.9218 H   0  0  0  0  0  0  0  0  0  0  0  0
  1  2  2  0
  2  3  1  0
  3  4  2  0
  3  5  2  0
  3  6  1  0
  6  7  1  0
  6  8  1  0
  6  9  1  0
  7 10  1  0
M  END
$$$$
