
     RDKit          3D

 13 12  0  0  0  0  0  0  0  0999 V2000
   -1.6194   -0.3427   -0.2127 C   0  0  0  0  0  0  0  0  0  0  0  0
   -0.3373    0.0046    0.9658 S   0  0  0  0  0  0  0  0  0  0  0  0
    0.1564   -1.2665    1.4650 O   0  0  0  0  0  0  0  0  0  0  0  0
   -0.8438    1.0156    1.8738 O   0  0  0  0  0  0  0  0  0  0  0  0
    0.9685    0.7485   -0.0562 C   0  0  0  0  0  0  0  0  0  0  0  0
    1.7883   -0.1533   -0.8956 N   0  0  0  0  0  0  0  0  0  0  0  0
   -1.9336    0.5931   -0.6784 H   0  0  0  0  0  0  0  0  0  0  0  0
   -2.4583   -0.7943    0.3209 H   0  0  0  0  0  0  0  0  0  0  0  0
   -1.2355   -1.0386   -0.9605 H   0  0  0  0  0  0  0  0  0  0  0  0
    0.4922    1.5109   -0.6799 H   0  0  0  0  0  0  0  0  0  0  0  0
    1.6340    1.2626    0.6453 H   0  0  0  0  0  0  0  0  0  0  0  0
    1.1839   -0.6886   -1.5171 H   0  0  0  0  0  0  0  0  0  0  0  0
    2.2046   -0.8512   -0.2704 H   0  0  0  0  0  0  0  0  0  0  0  0
  1  2  1  0
  2  3  2  0
  2  4  2  0
  2  5  1  0
  5  6  1  0
  1  7  1  0
  1  8  1  0
  1  9  1  0
  5 10  1  0
  5 11  1  0
  6 12  1  0
  6 13  1  0
M  END
$$$$
