
     RDKit          3D

 21 21  0  0  0  0  0  0  0  0999 V2000
    4.7105    0.3088   -0.9275 N   0  0  0  0  0  0  0  0  0  0  0  0
    3.7029   -0.0383   -0.4673 C   0  0  0  0  0  0  0  0  0  0  0  0
    2.4763   -0.5506    0.1451 C   0  0  0  0  0  0  0  0  0  0  0  0
    1.2748    0.3302   -0.1212 C   0  0  0  0  0  0  0  0  0  0  0  0
    1.3477    1.3898   -0.7414 O   0  0  0  0  0  0  0  0  0  0  0  0
   -0.0616   -0.1985    0.4058 C   0  0  0  0  0  0  0  0  0  0  0  0
   -0.7442   -1.0545   -0.6621 C   0  0  0  0  0  0  0  0  0  0  0  0
   -1.6980   -0.0930   -1.3542 C   0  0  0  0  0  0  0  0  0  0  0  0
   -2.2403    0.7413   -0.2075 C   0  0  0  0  0  0  0  0  0  0  0  0
   -1.0589    0.9199    0.7436 C   0  0  0  0  0  0  0  0  0  0  0  0
    2.6076   -0.6245    1.2298 H   0  0  0  0  0  0  0  0  0  0  0  0
    2.2624   -1.5510   -0.2452 H   0  0  0  0  0  0  0  0  0  0  0  0
    0.1493   -0.7893    1.3048 H   0  0  0  0  0  0  0  0  0  0  0  0
   -0.0491   -1.5122   -1.3727 H   0  0  0  0  0  0  0  0  0  0  0  0
   -1.3155   -1.8581   -0.1815 H   0  0  0  0  0  0  0  0  0  0  0  0
   -2.4902   -0.6142   -1.8993 H   0  0  0  0  0  0  0  0  0  0  0  0
   -1.1542    0.5417   -2.0635 H   0  0  0  0  0  0  0  0  0  0  0  0
   -3.0456    0.1981    0.3015 H   0  0  0  0  0  0  0  0  0  0  0  0
   -2.6465    1.6988   -0.5467 H   0  0  0  0  0  0  0  0  0  0  0  0
   -1.4015    0.8356    1.7813 H   0  0  0  0  0  0  0  0  0  0  0  0
   -0.6259    1.9199    0.6354 H   0  0  0  0  0  0  0  0  0  0  0  0
  1  2  3  0
  2  3  1  0
  3  4  1  0
  4  5  2  0
  4  6  1  0
  6  7  1  0
  7  8  1  0
  8  9  1  0
  9 10  1  0
 10  6  1  0
  3 11  1  0
  3 12  1  0
  6 13  1  0
  7 14  1  0
  7 15  1  0
  8 16  1  0
  8 17  1  0
  9 18  1  0
  9 19  1  0
 10 20  1  0
 10 21  1  0
M  END
$$$$
