
     RDKit          3D

 41 43  0  0  0  0  0  0  0  0999 V2000
   -3.6253   -1.6683   -1.3418 N   0  0  0  0  0  0  0  0  0  0  0  0
   -3.2422   -0.5620   -0.4504 C   0  0  0  0  0  0  0  0  0  0  0  0
   -3.6744   -0.8805    0.9851 C   0  0  0  0  0  0  0  0  0  0  0  0
   -2.5368   -1.7248    1.5344 C   0  0  0  0  0  0  0  0  0  0  0  0
   -1.2879   -1.0460    0.9881 C   0  0  0  0  0  0  0  0  0  0  0  0
   -1.6906   -0.4159   -0.3642 C   0  0  0  0  0  0  0  0  0  0  0  0
   -1.1381    1.0032   -0.4901 C   0  0  0  0  0  0  0  0  0  0  0  0
   -1.8458    2.0906    0.0621 C   0  0  0  0  0  0  0  0  0  0  0  0
   -1.3734    3.4006   -0.0436 C   0  0  0  0  0  0  0  0  0  0  0  0
   -0.1775    3.6566   -0.6998 C   0  0  0  0  0  0  0  0  0  0  0  0
    0.5540    2.5988   -1.2339 C   0  0  0  0  0  0  0  0  0  0  0  0
    0.0992    1.2744   -1.1186 C   0  0  0  0  0  0  0  0  0  0  0  0
    1.1613    0.0031   -1.8068 S   0  0  0  0  0  0  0  0  0  0  0  0
    2.2185   -0.3141   -0.3589 C   0  0  0  0  0  0  0  0  0  0  0  0
    2.9633   -1.6380   -0.4993 C   0  0  0  0  0  0  0  0  0  0  0  0
    4.0624   -1.5289    0.5502 C   0  0  0  0  0  0  0  0  0  0  0  0
    4.4083   -0.0424    0.6302 C   0  0  0  0  0  0  0  0  0  0  0  0
    3.3575    0.6902   -0.2050 C   0  0  0  0  0  0  0  0  0  0  0  0
   -4.6304   -1.8247   -1.2835 H   0  0  0  0  0  0  0  0  0  0  0  0
   -3.1804   -2.5361   -1.0476 H   0  0  0  0  0  0  0  0  0  0  0  0
   -3.7397    0.3373   -0.8254 H   0  0  0  0  0  0  0  0  0  0  0  0
   -4.6373   -1.3984    1.0457 H   0  0  0  0  0  0  0  0  0  0  0  0
   -3.7658    0.0441    1.5668 H   0  0  0  0  0  0  0  0  0  0  0  0
   -2.6029   -2.7544    1.1649 H   0  0  0  0  0  0  0  0  0  0  0  0
   -2.5395   -1.7611    2.6279 H   0  0  0  0  0  0  0  0  0  0  0  0
   -0.9458   -0.2866    1.7022 H   0  0  0  0  0  0  0  0  0  0  0  0
   -0.4708   -1.7657    0.8692 H   0  0  0  0  0  0  0  0  0  0  0  0
   -1.2694   -1.0206   -1.1755 H   0  0  0  0  0  0  0  0  0  0  0  0
   -2.7847    1.9369    0.5871 H   0  0  0  0  0  0  0  0  0  0  0  0
   -1.9460    4.2202    0.3833 H   0  0  0  0  0  0  0  0  0  0  0  0
    0.1890    4.6750   -0.7939 H   0  0  0  0  0  0  0  0  0  0  0  0
    1.4915    2.8153   -1.7420 H   0  0  0  0  0  0  0  0  0  0  0  0
    1.6105   -0.3362    0.5533 H   0  0  0  0  0  0  0  0  0  0  0  0
    2.3191   -2.5054   -0.3230 H   0  0  0  0  0  0  0  0  0  0  0  0
    3.4189   -1.7447   -1.4920 H   0  0  0  0  0  0  0  0  0  0  0  0
    4.9325   -2.1418    0.2960 H   0  0  0  0  0  0  0  0  0  0  0  0
    3.6884   -1.8726    1.5220 H   0  0  0  0  0  0  0  0  0  0  0  0
    4.3842    0.2951    1.6723 H   0  0  0  0  0  0  0  0  0  0  0  0
    5.4145    0.1555    0.2456 H   0  0  0  0  0  0  0  0  0  0  0  0
    3.0372    1.6167    0.2818 H   0  0  0  0  0  0  0  0  0  0  0  0
    3.7946    0.9555   -1.1760 H   0  0  0  0  0  0  0  0  0  0  0  0
  1  2  1  0
  2  3  1  0
  3  4  1  0
  4  5  1  0
  5  6  1  0
  6  7  1  0
  7  8  2  0
  8  9  1  0
  9 10  2  0
 10 11  1  0
 11 12  2  0
 12 13  1  0
 13 14  1  0
 14 15  1  0
 15 16  1  0
 16 17  1  0
 17 18  1  0
  6  2  1  0
 12  7  1  0
 18 14  1  0
  1 19  1  0
  1 20  1  0
  2 21  1  0
  3 22  1  0
  3 23  1  0
  4 24  1  0
  4 25  1  0
  5 26  1  0
  5 27  1  0
  6 28  1  0
  8 29  1  0
  9 30  1  0
 10 31  1  0
 11 32  1  0
 14 33  1  0
 15 34  1  0
 15 35  1  0
 16 36  1  0
 16 37  1  0
 17 38  1  0
 17 39  1  0
 18 40  1  0
 18 41  1  0
M  END
$$$$
