RIP
 OpenBabel09132600403D

 14 14  0  0  1  0  0  0  0  0999 V2000
   57.0990   23.1930    4.5950 C   0  0  1  0  0  3  0  0  0  0  0  0
   57.8780   24.0500    3.5530 C   0  0  1  0  0  3  0  0  0  0  0  0
   59.0440   24.8150    4.2070 C   0  0  1  0  0  3  0  0  0  0  0  0
   58.5830   25.3780    5.5570 C   0  0  1  0  0  3  0  0  0  0  0  0
   58.0490   24.2440    6.4710 C   0  0  0  0  0  2  0  0  0  0  0  0
   57.8460   23.0150    5.7880 O   0  0  0  0  0  0  0  0  0  0  0  0
   55.8460   23.7630    4.8830 O   0  0  0  0  0  0  0  0  0  0  0  0
   55.3300   23.0830    5.3890 H   0  0  0  0  0  0  0  0  0  0  0  0
   58.3740   23.2400    2.5170 O   0  0  0  0  0  0  0  0  0  0  0  0
   58.9960   22.5890    2.9370 H   0  0  0  0  0  0  0  0  0  0  0  0
   60.1410   23.9520    4.3870 O   0  0  0  0  0  0  0  0  0  0  0  0
   59.8690   23.0610    4.0420 H   0  0  0  0  0  0  0  0  0  0  0  0
   59.6430   26.0600    6.1770 O   0  0  0  0  0  0  0  0  0  0  0  0
   60.4230   25.4460    6.1630 H   0  0  0  0  0  0  0  0  0  0  0  0
  1  7  1  1  0  0  0
  1  6  1  0  0  0  0
  2  9  1  6  0  0  0
  2  3  1  0  0  0  0
  2  1  1  0  0  0  0
  3 11  1  1  0  0  0
  3  4  1  0  0  0  0
  4 13  1  1  0  0  0
  4  5  1  0  0  0  0
  6  5  1  0  0  0  0
  7  8  1  0  0  0  0
  9 10  1  0  0  0  0
 12 11  1  0  0  0  0
 14 13  1  0  0  0  0
M  END
>  <MODEL>
19

>  <REMARK>
 VINA RESULT:    -4.035      4.024      5.637
 INTER + INTRA:          -4.506
 INTER:                  -4.506
 INTRA:                   0.000
 UNBOUND:                 0.000
  Name = RIP
  4 active torsions:
  status: ('A' for Active; 'I' for Inactive)
    1  A    between atoms: C_1  and  O_6
    2  A    between atoms: C_2  and  O_7
    3  A    between atoms: C_3  and  O_8
    4  A    between atoms: C_4  and  O_9
                            x       y       z     vdW  Elec       q    Type
                         _______ _______ _______ _____ _____    ______ ____

>  <TORSDO>
F 4

$$$$
