RIP
 OpenBabel09132600403D

 14 14  0  0  1  0  0  0  0  0999 V2000
   61.3700   26.4060    6.2730 C   0  0  1  0  0  3  0  0  0  0  0  0
   62.3050   27.6330    6.4880 C   0  0  1  0  0  3  0  0  0  0  0  0
   61.5320   28.8410    7.0530 C   0  0  1  0  0  3  0  0  0  0  0  0
   60.1790   28.9510    6.3390 C   0  0  1  0  0  3  0  0  0  0  0  0
   59.3750   27.6320    6.4810 C   0  0  0  0  0  2  0  0  0  0  0  0
   60.1480   26.5490    6.9800 O   0  0  0  0  0  0  0  0  0  0  0  0
   61.1230   26.1930    4.9050 O   0  0  0  0  0  0  0  0  0  0  0  0
   62.0040   26.0490    4.4720 H   0  0  0  0  0  0  0  0  0  0  0  0
   63.3590   27.3060    7.3580 O   0  0  0  0  0  0  0  0  0  0  0  0
   63.0330   26.5660    7.9360 H   0  0  0  0  0  0  0  0  0  0  0  0
   61.3430   28.6830    8.4380 O   0  0  0  0  0  0  0  0  0  0  0  0
   60.8260   29.4700    8.7520 H   0  0  0  0  0  0  0  0  0  0  0  0
   59.4520   30.0350    6.8580 O   0  0  0  0  0  0  0  0  0  0  0  0
   58.6680   30.1630    6.2630 H   0  0  0  0  0  0  0  0  0  0  0  0
  1  7  1  6  0  0  0
  1  2  1  0  0  0  0
  1  6  1  0  0  0  0
  2  3  1  0  0  0  0
  2  9  1  1  0  0  0
  3 11  1  1  0  0  0
  4  5  1  0  0  0  0
  4 13  1  1  0  0  0
  4  3  1  0  0  0  0
  5  6  1  0  0  0  0
  8  7  1  0  0  0  0
  9 10  1  0  0  0  0
 11 12  1  0  0  0  0
 14 13  1  0  0  0  0
M  END
>  <MODEL>
18

>  <REMARK>
 VINA RESULT:    -4.041      1.609      3.032
 INTER + INTRA:          -4.513
 INTER:                  -4.513
 INTRA:                   0.000
 UNBOUND:                 0.000
  Name = RIP
  4 active torsions:
  status: ('A' for Active; 'I' for Inactive)
    1  A    between atoms: C_1  and  O_6
    2  A    between atoms: C_2  and  O_7
    3  A    between atoms: C_3  and  O_8
    4  A    between atoms: C_4  and  O_9
                            x       y       z     vdW  Elec       q    Type
                         _______ _______ _______ _____ _____    ______ ____

>  <TORSDO>
F 4

$$$$
