RIP
 OpenBabel09132600403D

 14 14  0  0  1  0  0  0  0  0999 V2000
   60.5320   27.7900    5.9980 C   0  0  1  0  0  3  0  0  0  0  0  0
   61.9340   27.5220    6.6230 C   0  0  1  0  0  3  0  0  0  0  0  0
   62.5550   26.2200    6.0830 C   0  0  1  0  0  3  0  0  0  0  0  0
   61.4690   25.1390    6.0030 C   0  0  1  0  0  3  0  0  0  0  0  0
   60.2810   25.6210    5.1290 C   0  0  0  0  0  2  0  0  0  0  0  0
   60.3220   27.0100    4.8320 O   0  0  0  0  0  0  0  0  0  0  0  0
   59.5090   27.5570    6.9350 O   0  0  0  0  0  0  0  0  0  0  0  0
   58.7910   27.0640    6.4590 H   0  0  0  0  0  0  0  0  0  0  0  0
   62.8030   28.5950    6.3660 O   0  0  0  0  0  0  0  0  0  0  0  0
   62.9690   28.6010    5.3860 H   0  0  0  0  0  0  0  0  0  0  0  0
   63.1130   26.4470    4.8110 O   0  0  0  0  0  0  0  0  0  0  0  0
   63.7550   25.7090    4.6410 H   0  0  0  0  0  0  0  0  0  0  0  0
   62.0140   23.9510    5.4910 O   0  0  0  0  0  0  0  0  0  0  0  0
   62.9180   24.1770    5.1480 H   0  0  0  0  0  0  0  0  0  0  0  0
  1  2  1  0  0  0  0
  1  7  1  1  0  0  0
  2  9  1  6  0  0  0
  3 11  1  6  0  0  0
  3  2  1  0  0  0  0
  4 13  1  6  0  0  0
  4  3  1  0  0  0  0
  5  4  1  0  0  0  0
  6  5  1  0  0  0  0
  6  1  1  0  0  0  0
  8  7  1  0  0  0  0
 10  9  1  0  0  0  0
 12 11  1  0  0  0  0
 14 13  1  0  0  0  0
M  END
>  <MODEL>
3

>  <REMARK>
 VINA RESULT:    -4.538      1.166      3.124
 INTER + INTRA:          -5.069
 INTER:                  -5.069
 INTRA:                   0.000
 UNBOUND:                 0.000
  Name = RIP
  4 active torsions:
  status: ('A' for Active; 'I' for Inactive)
    1  A    between atoms: C_1  and  O_6
    2  A    between atoms: C_2  and  O_7
    3  A    between atoms: C_3  and  O_8
    4  A    between atoms: C_4  and  O_9
                            x       y       z     vdW  Elec       q    Type
                         _______ _______ _______ _____ _____    ______ ____

>  <TORSDO>
F 4

$$$$
