RIP
 OpenBabel09132600403D

 14 14  0  0  1  0  0  0  0  0999 V2000
   63.4670   27.2320    6.3510 C   0  0  1  0  0  3  0  0  0  0  0  0
   62.7520   26.0100    5.7000 C   0  0  1  0  0  3  0  0  0  0  0  0
   61.2240   26.2000    5.6660 C   0  0  1  0  0  3  0  0  0  0  0  0
   60.7630   26.8100    6.9960 C   0  0  1  0  0  3  0  0  0  0  0  0
   61.5060   28.1440    7.2740 C   0  0  0  0  0  2  0  0  0  0  0  0
   62.6140   28.3640    6.4130 O   0  0  0  0  0  0  0  0  0  0  0  0
   63.9470   26.9100    7.6340 O   0  0  0  0  0  0  0  0  0  0  0  0
   64.2140   27.7640    8.0630 H   0  0  0  0  0  0  0  0  0  0  0  0
   63.2240   25.8000    4.3930 O   0  0  0  0  0  0  0  0  0  0  0  0
   63.5230   24.8540    4.3450 H   0  0  0  0  0  0  0  0  0  0  0  0
   60.8680   27.0400    4.5940 O   0  0  0  0  0  0  0  0  0  0  0  0
   60.2680   26.5160    4.0030 H   0  0  0  0  0  0  0  0  0  0  0  0
   59.3730   27.0110    6.9740 O   0  0  0  0  0  0  0  0  0  0  0  0
   59.1800   27.7400    7.6200 H   0  0  0  0  0  0  0  0  0  0  0  0
  1  6  1  0  0  0  0
  1  7  1  1  0  0  0
  2  9  1  6  0  0  0
  2  1  1  0  0  0  0
  3 11  1  6  0  0  0
  3  2  1  0  0  0  0
  3  4  1  0  0  0  0
  4 13  1  6  0  0  0
  4  5  1  0  0  0  0
  6  5  1  0  0  0  0
  7  8  1  0  0  0  0
 10  9  1  0  0  0  0
 12 11  1  0  0  0  0
 13 14  1  0  0  0  0
M  END
>  <MODEL>
1

>  <REMARK>
 VINA RESULT:    -4.772      0.000      0.000
 INTER + INTRA:          -5.330
 INTER:                  -5.330
 INTRA:                   0.000
 UNBOUND:                 0.000
  Name = RIP
  4 active torsions:
  status: ('A' for Active; 'I' for Inactive)
    1  A    between atoms: C_1  and  O_6
    2  A    between atoms: C_2  and  O_7
    3  A    between atoms: C_3  and  O_8
    4  A    between atoms: C_4  and  O_9
                            x       y       z     vdW  Elec       q    Type
                         _______ _______ _______ _____ _____    ______ ____

>  <TORSDO>
F 4

$$$$
