RIP
 OpenBabel09132600403D

 14 14  0  0  1  0  0  0  0  0999 V2000
   62.1940   25.6810    5.6960 C   0  0  1  0  0  3  0  0  0  0  0  0
   61.3380   24.3940    5.5050 C   0  0  1  0  0  3  0  0  0  0  0  0
   59.8640   24.7320    5.2140 C   0  0  1  0  0  3  0  0  0  0  0  0
   59.4230   25.8860    6.1220 C   0  0  1  0  0  3  0  0  0  0  0  0
   60.3480   27.1170    5.9320 C   0  0  0  0  0  2  0  0  0  0  0  0
   61.5290   26.8300    5.1960 O   0  0  0  0  0  0  0  0  0  0  0  0
   62.5370   25.8640    7.0480 O   0  0  0  0  0  0  0  0  0  0  0  0
   61.7160   25.6960    7.5780 H   0  0  0  0  0  0  0  0  0  0  0  0
   61.8530   23.6090    4.4590 O   0  0  0  0  0  0  0  0  0  0  0  0
   61.5070   22.6870    4.5960 H   0  0  0  0  0  0  0  0  0  0  0  0
   59.7130   25.0890    3.8610 O   0  0  0  0  0  0  0  0  0  0  0  0
   58.8220   24.7620    3.5720 H   0  0  0  0  0  0  0  0  0  0  0  0
   58.0870   26.2220    5.8530 O   0  0  0  0  0  0  0  0  0  0  0  0
   57.7260   25.5080    5.2650 H   0  0  0  0  0  0  0  0  0  0  0  0
  1  7  1  1  0  0  0
  2  9  1  6  0  0  0
  2  1  1  0  0  0  0
  3 11  1  6  0  0  0
  3  2  1  0  0  0  0
  3  4  1  0  0  0  0
  4 13  1  6  0  0  0
  5  4  1  0  0  0  0
  6  1  1  0  0  0  0
  6  5  1  0  0  0  0
  7  8  1  0  0  0  0
  9 10  1  0  0  0  0
 12 11  1  0  0  0  0
 14 13  1  0  0  0  0
M  END
>  <MODEL>
6

>  <REMARK>
 VINA RESULT:    -4.400      1.814      2.127
 INTER + INTRA:          -4.915
 INTER:                  -4.915
 INTRA:                   0.000
 UNBOUND:                 0.000
  Name = RIP
  4 active torsions:
  status: ('A' for Active; 'I' for Inactive)
    1  A    between atoms: C_1  and  O_6
    2  A    between atoms: C_2  and  O_7
    3  A    between atoms: C_3  and  O_8
    4  A    between atoms: C_4  and  O_9
                            x       y       z     vdW  Elec       q    Type
                         _______ _______ _______ _____ _____    ______ ____

>  <TORSDO>
F 4

$$$$
