RIP
 OpenBabel09132600403D

 14 14  0  0  1  0  0  0  0  0999 V2000
   61.4440   28.4280    7.1050 C   0  0  1  0  0  3  0  0  0  0  0  0
   60.1540   28.7750    6.3040 C   0  0  1  0  0  3  0  0  0  0  0  0
   59.5480   27.5250    5.6370 C   0  0  1  0  0  3  0  0  0  0  0  0
   60.6780   26.6700    5.0490 C   0  0  1  0  0  3  0  0  0  0  0  0
   61.7120   26.2990    6.1440 C   0  0  0  0  0  2  0  0  0  0  0  0
   61.5490   27.0340    7.3490 O   0  0  0  0  0  0  0  0  0  0  0  0
   62.5930   28.8960    6.4410 O   0  0  0  0  0  0  0  0  0  0  0  0
   62.8920   29.7100    6.9230 H   0  0  0  0  0  0  0  0  0  0  0  0
   59.1950   29.3670    7.1430 O   0  0  0  0  0  0  0  0  0  0  0  0
   59.6950   29.8570    7.8480 H   0  0  0  0  0  0  0  0  0  0  0  0
   58.8170   26.7840    6.5840 O   0  0  0  0  0  0  0  0  0  0  0  0
   57.9480   27.2470    6.7060 H   0  0  0  0  0  0  0  0  0  0  0  0
   60.1440   25.5150    4.4560 O   0  0  0  0  0  0  0  0  0  0  0  0
   59.5000   25.1320    5.1090 H   0  0  0  0  0  0  0  0  0  0  0  0
  1  7  1  6  0  0  0
  1  6  1  0  0  0  0
  2  1  1  0  0  0  0
  2  9  1  1  0  0  0
  3  2  1  0  0  0  0
  3 11  1  1  0  0  0
  4 13  1  1  0  0  0
  4  3  1  0  0  0  0
  4  5  1  0  0  0  0
  5  6  1  0  0  0  0
  7  8  1  0  0  0  0
  9 10  1  0  0  0  0
 11 12  1  0  0  0  0
 13 14  1  0  0  0  0
M  END
>  <MODEL>
20

>  <REMARK>
 VINA RESULT:    -3.987      1.641      3.144
 INTER + INTRA:          -4.453
 INTER:                  -4.453
 INTRA:                   0.000
 UNBOUND:                 0.000
  Name = RIP
  4 active torsions:
  status: ('A' for Active; 'I' for Inactive)
    1  A    between atoms: C_1  and  O_6
    2  A    between atoms: C_2  and  O_7
    3  A    between atoms: C_3  and  O_8
    4  A    between atoms: C_4  and  O_9
                            x       y       z     vdW  Elec       q    Type
                         _______ _______ _______ _____ _____    ______ ____

>  <TORSDO>
F 4

$$$$
