RIP
 OpenBabel09132600403D

 14 14  0  0  1  0  0  0  0  0999 V2000
   60.1750   26.7620    5.0070 C   0  0  1  0  0  3  0  0  0  0  0  0
   59.2860   27.9180    5.5550 C   0  0  1  0  0  3  0  0  0  0  0  0
   60.0550   28.7940    6.5620 C   0  0  1  0  0  3  0  0  0  0  0  0
   60.8910   27.8930    7.4800 C   0  0  1  0  0  3  0  0  0  0  0  0
   61.8440   26.9970    6.6460 C   0  0  0  0  0  2  0  0  0  0  0  0
   61.5520   26.9990    5.2550 O   0  0  0  0  0  0  0  0  0  0  0  0
   59.7850   25.5240    5.5500 O   0  0  0  0  0  0  0  0  0  0  0  0
   60.1380   25.4930    6.4770 H   0  0  0  0  0  0  0  0  0  0  0  0
   58.8150   28.7210    4.5030 O   0  0  0  0  0  0  0  0  0  0  0  0
   57.8500   28.8830    4.6770 H   0  0  0  0  0  0  0  0  0  0  0  0
   60.8860   29.6980    5.8740 O   0  0  0  0  0  0  0  0  0  0  0  0
   60.7000   29.5840    4.9060 H   0  0  0  0  0  0  0  0  0  0  0  0
   61.6160   28.6780    8.3900 O   0  0  0  0  0  0  0  0  0  0  0  0
   61.7310   29.5700    7.9680 H   0  0  0  0  0  0  0  0  0  0  0  0
  1  6  1  0  0  0  0
  1  7  1  1  0  0  0
  1  2  1  0  0  0  0
  2  9  1  6  0  0  0
  2  3  1  0  0  0  0
  3 11  1  6  0  0  0
  3  4  1  0  0  0  0
  4 13  1  1  0  0  0
  5  4  1  0  0  0  0
  6  5  1  0  0  0  0
  7  8  1  0  0  0  0
  9 10  1  0  0  0  0
 12 11  1  0  0  0  0
 14 13  1  0  0  0  0
M  END
>  <MODEL>
9

>  <REMARK>
 VINA RESULT:    -4.325      1.860      3.393
 INTER + INTRA:          -4.830
 INTER:                  -4.830
 INTRA:                   0.000
 UNBOUND:                 0.000
  Name = RIP
  4 active torsions:
  status: ('A' for Active; 'I' for Inactive)
    1  A    between atoms: C_1  and  O_6
    2  A    between atoms: C_2  and  O_7
    3  A    between atoms: C_3  and  O_8
    4  A    between atoms: C_4  and  O_9
                            x       y       z     vdW  Elec       q    Type
                         _______ _______ _______ _____ _____    ______ ____

>  <TORSDO>
F 4

$$$$
