RIP
 OpenBabel09132600403D

 14 14  0  0  1  0  0  0  0  0999 V2000
   59.2940   28.7900    7.5540 C   0  0  1  0  0  3  0  0  0  0  0  0
   60.6440   28.2700    8.1330 C   0  0  1  0  0  3  0  0  0  0  0  0
   61.6060   27.8260    7.0150 C   0  0  1  0  0  3  0  0  0  0  0  0
   60.8180   27.0560    5.9480 C   0  0  1  0  0  3  0  0  0  0  0  0
   59.6520   27.9200    5.3990 C   0  0  0  0  0  2  0  0  0  0  0  0
   59.3990   29.0860    6.1700 O   0  0  0  0  0  0  0  0  0  0  0  0
   58.2590   27.8650    7.7790 O   0  0  0  0  0  0  0  0  0  0  0  0
   57.4820   28.3800    8.1190 H   0  0  0  0  0  0  0  0  0  0  0  0
   61.2620   29.2630    8.9130 O   0  0  0  0  0  0  0  0  0  0  0  0
   61.6260   28.8080    9.7180 H   0  0  0  0  0  0  0  0  0  0  0  0
   62.2300   28.9520    6.4450 O   0  0  0  0  0  0  0  0  0  0  0  0
   63.1530   28.9870    6.8090 H   0  0  0  0  0  0  0  0  0  0  0  0
   61.6780   26.6640    4.9090 O   0  0  0  0  0  0  0  0  0  0  0  0
   62.0920   27.4930    4.5550 H   0  0  0  0  0  0  0  0  0  0  0  0
  1  7  1  6  0  0  0
  1  2  1  0  0  0  0
  2  9  1  6  0  0  0
  3 11  1  6  0  0  0
  3  2  1  0  0  0  0
  4 13  1  6  0  0  0
  4  3  1  0  0  0  0
  5  4  1  0  0  0  0
  5  6  1  0  0  0  0
  6  1  1  0  0  0  0
  7  8  1  0  0  0  0
  9 10  1  0  0  0  0
 11 12  1  0  0  0  0
 14 13  1  0  0  0  0
M  END
>  <MODEL>
17

>  <REMARK>
 VINA RESULT:    -4.043      1.758      3.855
 INTER + INTRA:          -4.516
 INTER:                  -4.516
 INTRA:                   0.000
 UNBOUND:                 0.000
  Name = RIP
  4 active torsions:
  status: ('A' for Active; 'I' for Inactive)
    1  A    between atoms: C_1  and  O_6
    2  A    between atoms: C_2  and  O_7
    3  A    between atoms: C_3  and  O_8
    4  A    between atoms: C_4  and  O_9
                            x       y       z     vdW  Elec       q    Type
                         _______ _______ _______ _____ _____    ______ ____

>  <TORSDO>
F 4

$$$$
