RIP
 OpenBabel09132600403D

 14 14  0  0  1  0  0  0  0  0999 V2000
   61.6290   30.5260    6.7200 C   0  0  1  0  0  3  0  0  0  0  0  0
   60.7630   30.8090    7.9830 C   0  0  1  0  0  3  0  0  0  0  0  0
   60.2240   29.5060    8.6030 C   0  0  1  0  0  3  0  0  0  0  0  0
   59.7610   28.5680    7.4810 C   0  0  1  0  0  3  0  0  0  0  0  0
   60.9160   28.2990    6.4810 C   0  0  0  0  0  2  0  0  0  0  0  0
   62.0280   29.1660    6.6530 O   0  0  0  0  0  0  0  0  0  0  0  0
   60.9460   30.8940    5.5460 O   0  0  0  0  0  0  0  0  0  0  0  0
   61.5360   30.6590    4.7840 H   0  0  0  0  0  0  0  0  0  0  0  0
   61.5090   31.5100    8.9460 O   0  0  0  0  0  0  0  0  0  0  0  0
   61.8950   32.3020    8.4880 H   0  0  0  0  0  0  0  0  0  0  0  0
   61.2290   28.8890    9.3720 O   0  0  0  0  0  0  0  0  0  0  0  0
   61.3030   27.9520    9.0540 H   0  0  0  0  0  0  0  0  0  0  0  0
   59.2870   27.3650    8.0290 O   0  0  0  0  0  0  0  0  0  0  0  0
   58.8750   26.8560    7.2830 H   0  0  0  0  0  0  0  0  0  0  0  0
  1  7  1  6  0  0  0
  1  2  1  0  0  0  0
  2  3  1  0  0  0  0
  2  9  1  1  0  0  0
  3 11  1  6  0  0  0
  4 13  1  1  0  0  0
  4  3  1  0  0  0  0
  5  6  1  0  0  0  0
  5  4  1  0  0  0  0
  6  1  1  0  0  0  0
  8  7  1  0  0  0  0
 10  9  1  0  0  0  0
 12 11  1  0  0  0  0
 14 13  1  0  0  0  0
M  END
>  <MODEL>
7

>  <REMARK>
 VINA RESULT:    -4.395      2.560      4.320
 INTER + INTRA:          -4.908
 INTER:                  -4.908
 INTRA:                   0.000
 UNBOUND:                 0.000
  Name = RIP
  4 active torsions:
  status: ('A' for Active; 'I' for Inactive)
    1  A    between atoms: C_1  and  O_6
    2  A    between atoms: C_2  and  O_7
    3  A    between atoms: C_3  and  O_8
    4  A    between atoms: C_4  and  O_9
                            x       y       z     vdW  Elec       q    Type
                         _______ _______ _______ _____ _____    ______ ____

>  <TORSDO>
F 4

$$$$
