RIP
 OpenBabel09132600403D

 14 14  0  0  1  0  0  0  0  0999 V2000
   61.0910   24.5100    5.5820 C   0  0  1  0  0  3  0  0  0  0  0  0
   61.8960   25.8220    5.8250 C   0  0  1  0  0  3  0  0  0  0  0  0
   60.9750   27.0570    5.8360 C   0  0  1  0  0  3  0  0  0  0  0  0
   59.9390   26.9230    4.7120 C   0  0  1  0  0  3  0  0  0  0  0  0
   59.1390   25.6020    4.8600 C   0  0  0  0  0  2  0  0  0  0  0  0
   59.7030   24.7010    5.8020 O   0  0  0  0  0  0  0  0  0  0  0  0
   61.3180   24.0120    4.2860 O   0  0  0  0  0  0  0  0  0  0  0  0
   60.5450   23.4330    4.0610 H   0  0  0  0  0  0  0  0  0  0  0  0
   62.5980   25.7540    7.0410 O   0  0  0  0  0  0  0  0  0  0  0  0
   63.3990   26.3330    6.9410 H   0  0  0  0  0  0  0  0  0  0  0  0
   60.3320   27.1650    7.0830 O   0  0  0  0  0  0  0  0  0  0  0  0
   59.8120   28.0100    7.0690 H   0  0  0  0  0  0  0  0  0  0  0  0
   59.0770   28.0310    4.7220 O   0  0  0  0  0  0  0  0  0  0  0  0
   58.2310   27.7290    5.1450 H   0  0  0  0  0  0  0  0  0  0  0  0
  1  7  1  6  0  0  0
  1  6  1  0  0  0  0
  1  2  1  0  0  0  0
  2  3  1  0  0  0  0
  2  9  1  1  0  0  0
  3 11  1  1  0  0  0
  4 13  1  1  0  0  0
  4  5  1  0  0  0  0
  4  3  1  0  0  0  0
  5  6  1  0  0  0  0
  8  7  1  0  0  0  0
 10  9  1  0  0  0  0
 12 11  1  0  0  0  0
 13 14  1  0  0  0  0
M  END
>  <MODEL>
5

>  <REMARK>
 VINA RESULT:    -4.417      1.874      3.285
 INTER + INTRA:          -4.933
 INTER:                  -4.933
 INTRA:                   0.000
 UNBOUND:                 0.000
  Name = RIP
  4 active torsions:
  status: ('A' for Active; 'I' for Inactive)
    1  A    between atoms: C_1  and  O_6
    2  A    between atoms: C_2  and  O_7
    3  A    between atoms: C_3  and  O_8
    4  A    between atoms: C_4  and  O_9
                            x       y       z     vdW  Elec       q    Type
                         _______ _______ _______ _____ _____    ______ ____

>  <TORSDO>
F 4

$$$$
