RIP
 OpenBabel09132600403D

 14 14  0  0  1  0  0  0  0  0999 V2000
   58.7850   24.4820    5.0620 C   0  0  1  0  0  3  0  0  0  0  0  0
   58.8800   25.8800    5.7420 C   0  0  1  0  0  3  0  0  0  0  0  0
   60.3180   26.4310    5.7060 C   0  0  1  0  0  3  0  0  0  0  0  0
   61.3010   25.2950    6.0180 C   0  0  1  0  0  3  0  0  0  0  0  0
   61.1070   24.1150    5.0290 C   0  0  0  0  0  2  0  0  0  0  0  0
   59.9200   24.2150    4.2540 O   0  0  0  0  0  0  0  0  0  0  0  0
   58.6160   23.4650    6.0200 O   0  0  0  0  0  0  0  0  0  0  0  0
   58.4610   22.6220    5.5200 H   0  0  0  0  0  0  0  0  0  0  0  0
   58.0150   26.7940    5.1170 O   0  0  0  0  0  0  0  0  0  0  0  0
   58.1040   27.6540    5.6070 H   0  0  0  0  0  0  0  0  0  0  0  0
   60.5900   26.9770    4.4370 O   0  0  0  0  0  0  0  0  0  0  0  0
   60.2500   26.3300    3.7650 H   0  0  0  0  0  0  0  0  0  0  0  0
   62.6190   25.7750    5.9670 O   0  0  0  0  0  0  0  0  0  0  0  0
   63.2140   24.9870    6.0700 H   0  0  0  0  0  0  0  0  0  0  0  0
  1  2  1  0  0  0  0
  1  7  1  1  0  0  0
  2  9  1  6  0  0  0
  3 11  1  6  0  0  0
  3  2  1  0  0  0  0
  3  4  1  0  0  0  0
  4 13  1  6  0  0  0
  5  4  1  0  0  0  0
  6  5  1  0  0  0  0
  6  1  1  0  0  0  0
  8  7  1  0  0  0  0
  9 10  1  0  0  0  0
 12 11  1  0  0  0  0
 13 14  1  0  0  0  0
M  END
>  <MODEL>
2

>  <REMARK>
 VINA RESULT:    -4.540      2.298      4.311
 INTER + INTRA:          -5.071
 INTER:                  -5.071
 INTRA:                   0.000
 UNBOUND:                 0.000
  Name = RIP
  4 active torsions:
  status: ('A' for Active; 'I' for Inactive)
    1  A    between atoms: C_1  and  O_6
    2  A    between atoms: C_2  and  O_7
    3  A    between atoms: C_3  and  O_8
    4  A    between atoms: C_4  and  O_9
                            x       y       z     vdW  Elec       q    Type
                         _______ _______ _______ _____ _____    ______ ____

>  <TORSDO>
F 4

$$$$
