RIP
 OpenBabel09132600403D

 14 14  0  0  1  0  0  0  0  0999 V2000
   61.8550   24.0780    4.9860 C   0  0  1  0  0  3  0  0  0  0  0  0
   60.3880   24.6040    4.9950 C   0  0  1  0  0  3  0  0  0  0  0  0
   60.3110   26.0550    5.5040 C   0  0  1  0  0  3  0  0  0  0  0  0
   61.2520   26.2200    6.7040 C   0  0  1  0  0  3  0  0  0  0  0  0
   62.7010   25.8160    6.3230 C   0  0  0  0  0  2  0  0  0  0  0  0
   62.7910   25.1400    5.0770 O   0  0  0  0  0  0  0  0  0  0  0  0
   62.0650   23.1490    6.0220 O   0  0  0  0  0  0  0  0  0  0  0  0
   62.4420   23.6540    6.7880 H   0  0  0  0  0  0  0  0  0  0  0  0
   59.8280   24.5290    3.7080 O   0  0  0  0  0  0  0  0  0  0  0  0
   60.5020   24.9030    3.0810 H   0  0  0  0  0  0  0  0  0  0  0  0
   60.6720   26.9440    4.4740 O   0  0  0  0  0  0  0  0  0  0  0  0
   59.8950   27.0070    3.8600 H   0  0  0  0  0  0  0  0  0  0  0  0
   61.2100   27.5450    7.1660 O   0  0  0  0  0  0  0  0  0  0  0  0
   61.2560   27.5030    8.1570 H   0  0  0  0  0  0  0  0  0  0  0  0
  1  2  1  0  0  0  0
  1  6  1  0  0  0  0
  1  7  1  1  0  0  0
  2  9  1  6  0  0  0
  2  3  1  0  0  0  0
  3 11  1  6  0  0  0
  3  4  1  0  0  0  0
  4 13  1  6  0  0  0
  5  4  1  0  0  0  0
  6  5  1  0  0  0  0
  7  8  1  0  0  0  0
 10  9  1  0  0  0  0
 12 11  1  0  0  0  0
 13 14  1  0  0  0  0
M  END
>  <MODEL>
8

>  <REMARK>
 VINA RESULT:    -4.389      1.852      2.857
 INTER + INTRA:          -4.902
 INTER:                  -4.902
 INTRA:                   0.000
 UNBOUND:                 0.000
  Name = RIP
  4 active torsions:
  status: ('A' for Active; 'I' for Inactive)
    1  A    between atoms: C_1  and  O_6
    2  A    between atoms: C_2  and  O_7
    3  A    between atoms: C_3  and  O_8
    4  A    between atoms: C_4  and  O_9
                            x       y       z     vdW  Elec       q    Type
                         _______ _______ _______ _____ _____    ______ ____

>  <TORSDO>
F 4

$$$$
