RIP
 OpenBabel09132600403D

 14 14  0  0  1  0  0  0  0  0999 V2000
   62.6830   23.8240    4.7380 C   0  0  1  0  0  3  0  0  0  0  0  0
   63.1760   25.2990    4.8290 C   0  0  1  0  0  3  0  0  0  0  0  0
   62.2400   26.1560    5.7020 C   0  0  1  0  0  3  0  0  0  0  0  0
   60.7830   25.7930    5.3850 C   0  0  1  0  0  3  0  0  0  0  0  0
   60.5400   24.2750    5.5910 C   0  0  0  0  0  2  0  0  0  0  0  0
   61.7360   23.5260    5.7510 O   0  0  0  0  0  0  0  0  0  0  0  0
   62.1440   23.5500    3.4680 O   0  0  0  0  0  0  0  0  0  0  0  0
   62.7320   23.9930    2.8030 H   0  0  0  0  0  0  0  0  0  0  0  0
   64.4800   25.3530    5.3520 O   0  0  0  0  0  0  0  0  0  0  0  0
   64.8920   26.1880    5.0070 H   0  0  0  0  0  0  0  0  0  0  0  0
   62.5140   25.9300    7.0640 O   0  0  0  0  0  0  0  0  0  0  0  0
   61.9430   26.5550    7.5820 H   0  0  0  0  0  0  0  0  0  0  0  0
   59.9160   26.5500    6.1890 O   0  0  0  0  0  0  0  0  0  0  0  0
   59.8630   26.0860    7.0650 H   0  0  0  0  0  0  0  0  0  0  0  0
  1  7  1  6  0  0  0
  1  2  1  0  0  0  0
  1  6  1  0  0  0  0
  2  9  1  1  0  0  0
  2  3  1  0  0  0  0
  3 11  1  1  0  0  0
  4  5  1  0  0  0  0
  4  3  1  0  0  0  0
  4 13  1  1  0  0  0
  5  6  1  0  0  0  0
  8  7  1  0  0  0  0
 10  9  1  0  0  0  0
 11 12  1  0  0  0  0
 13 14  1  0  0  0  0
M  END
>  <MODEL>
4

>  <REMARK>
 VINA RESULT:    -4.454      1.885      3.317
 INTER + INTRA:          -4.975
 INTER:                  -4.975
 INTRA:                   0.000
 UNBOUND:                 0.000
  Name = RIP
  4 active torsions:
  status: ('A' for Active; 'I' for Inactive)
    1  A    between atoms: C_1  and  O_6
    2  A    between atoms: C_2  and  O_7
    3  A    between atoms: C_3  and  O_8
    4  A    between atoms: C_4  and  O_9
                            x       y       z     vdW  Elec       q    Type
                         _______ _______ _______ _____ _____    ______ ____

>  <TORSDO>
F 4

$$$$
