RIP
 OpenBabel09132600403D

 14 14  0  0  1  0  0  0  0  0999 V2000
   61.1940   28.1390    7.1010 C   0  0  1  0  0  3  0  0  0  0  0  0
   60.4040   28.9050    8.2040 C   0  0  1  0  0  3  0  0  0  0  0  0
   59.2940   28.0300    8.8160 C   0  0  1  0  0  3  0  0  0  0  0  0
   58.5950   27.2460    7.6970 C   0  0  1  0  0  3  0  0  0  0  0  0
   59.6220   26.4030    6.8960 C   0  0  0  0  0  2  0  0  0  0  0  0
   60.9730   26.7400    7.1770 O   0  0  0  0  0  0  0  0  0  0  0  0
   60.8650   28.6180    5.8200 O   0  0  0  0  0  0  0  0  0  0  0  0
   59.9650   28.2600    5.6010 H   0  0  0  0  0  0  0  0  0  0  0  0
   61.2700   29.3390    9.2220 O   0  0  0  0  0  0  0  0  0  0  0  0
   62.0960   29.6650    8.7750 H   0  0  0  0  0  0  0  0  0  0  0  0
   59.8470   27.1450    9.7610 O   0  0  0  0  0  0  0  0  0  0  0  0
   59.9000   26.2540    9.3270 H   0  0  0  0  0  0  0  0  0  0  0  0
   57.5940   26.4260    8.2420 O   0  0  0  0  0  0  0  0  0  0  0  0
   57.6310   25.5660    7.7470 H   0  0  0  0  0  0  0  0  0  0  0  0
  1  7  1  6  0  0  0
  1  6  1  0  0  0  0
  1  2  1  0  0  0  0
  2  3  1  0  0  0  0
  2  9  1  1  0  0  0
  3 11  1  1  0  0  0
  4 13  1  1  0  0  0
  4  3  1  0  0  0  0
  5  6  1  0  0  0  0
  5  4  1  0  0  0  0
  8  7  1  0  0  0  0
 10  9  1  0  0  0  0
 12 11  1  0  0  0  0
 14 13  1  0  0  0  0
M  END
>  <MODEL>
13

>  <REMARK>
 VINA RESULT:    -4.131      2.327      3.872
 INTER + INTRA:          -4.614
 INTER:                  -4.614
 INTRA:                   0.000
 UNBOUND:                 0.000
  Name = RIP
  4 active torsions:
  status: ('A' for Active; 'I' for Inactive)
    1  A    between atoms: C_1  and  O_6
    2  A    between atoms: C_2  and  O_7
    3  A    between atoms: C_3  and  O_8
    4  A    between atoms: C_4  and  O_9
                            x       y       z     vdW  Elec       q    Type
                         _______ _______ _______ _____ _____    ______ ____

>  <TORSDO>
F 4

$$$$
