RIP
 OpenBabel09132600403D

 14 14  0  0  1  0  0  0  0  0999 V2000
   61.7570   28.3700    6.7870 C   0  0  1  0  0  3  0  0  0  0  0  0
   61.6900   26.8780    6.3430 C   0  0  1  0  0  3  0  0  0  0  0  0
   60.3810   26.5690    5.5920 C   0  0  1  0  0  3  0  0  0  0  0  0
   59.2150   27.2700    6.3020 C   0  0  1  0  0  3  0  0  0  0  0  0
   59.4760   28.7960    6.4080 C   0  0  0  0  0  2  0  0  0  0  0  0
   60.8110   29.1650    6.0910 O   0  0  0  0  0  0  0  0  0  0  0  0
   61.5720   28.4920    8.1760 O   0  0  0  0  0  0  0  0  0  0  0  0
   61.9880   27.6940    8.5930 H   0  0  0  0  0  0  0  0  0  0  0  0
   62.7850   26.5560    5.5230 O   0  0  0  0  0  0  0  0  0  0  0  0
   62.9270   25.5770    5.6060 H   0  0  0  0  0  0  0  0  0  0  0  0
   60.4770   27.0110    4.2590 O   0  0  0  0  0  0  0  0  0  0  0  0
   60.7220   26.2210    3.7100 H   0  0  0  0  0  0  0  0  0  0  0  0
   58.0160   27.0170    5.6170 O   0  0  0  0  0  0  0  0  0  0  0  0
   57.7680   27.8610    5.1570 H   0  0  0  0  0  0  0  0  0  0  0  0
  1  7  1  1  0  0  0
  2  9  1  6  0  0  0
  2  1  1  0  0  0  0
  3 11  1  6  0  0  0
  3  4  1  0  0  0  0
  3  2  1  0  0  0  0
  4 13  1  6  0  0  0
  4  5  1  0  0  0  0
  6  5  1  0  0  0  0
  6  1  1  0  0  0  0
  7  8  1  0  0  0  0
  9 10  1  0  0  0  0
 12 11  1  0  0  0  0
 14 13  1  0  0  0  0
M  END
>  <MODEL>
14

>  <REMARK>
 VINA RESULT:    -4.068      1.579      1.854
 INTER + INTRA:          -4.544
 INTER:                  -4.544
 INTRA:                   0.000
 UNBOUND:                 0.000
  Name = RIP
  4 active torsions:
  status: ('A' for Active; 'I' for Inactive)
    1  A    between atoms: C_1  and  O_6
    2  A    between atoms: C_2  and  O_7
    3  A    between atoms: C_3  and  O_8
    4  A    between atoms: C_4  and  O_9
                            x       y       z     vdW  Elec       q    Type
                         _______ _______ _______ _____ _____    ______ ____

>  <TORSDO>
F 4

$$$$
