BGC
     RDKit          3D

 12 12  0  0  1  0  0  0  0  0999 V2000
   49.3060   10.4380   26.9530 C   0  0  0  0  0  3  0  0  0  0  0  0
   47.9160   10.9850   27.3230 C   0  0  0  0  0  3  0  0  0  0  0  0
   47.5030   10.5050   28.7260 C   0  0  0  0  0  3  0  0  0  0  0  0
   47.7300    8.9830   28.9130 C   0  0  0  0  0  3  0  0  0  0  0  0
   49.3740    8.9150   27.1790 C   0  0  0  0  0  3  0  0  0  0  0  0
   49.0220    8.5440   28.5040 O   0  0  0  0  0  0  0  0  0  0  0  0
   48.5990    8.2170   26.2390 O   0  0  0  0  0  0  0  0  0  0  0  0
   50.2950   11.0600   27.7340 O   0  0  0  0  0  0  0  0  0  0  0  0
   46.9590   10.5810   26.3780 O   0  0  0  0  0  0  0  0  0  0  0  0
   48.2450   11.1940   29.7010 O   0  0  0  0  0  0  0  0  0  0  0  0
   46.5900    8.1120   28.3490 C   0  0  0  0  0  2  0  0  0  0  0  0
   45.4080    8.8620   28.2840 O   0  0  0  0  0  0  0  0  0  0  0  0
  1  5  1  0
  1  2  1  0
  1  8  1  0
  2  9  1  0
  2  3  1  0
  3  4  1  0
  3 10  1  0
  4 11  1  0
  5  7  1  0
  5  6  1  0
  6  4  1  0
 12 11  1  0
M  RAD  6   1   2   2   2   3   2   4   2   5   2  11   3
M  END
>  <MODEL>  (1) 
6

>  <REMARK>  (1) 
 VINA RESULT:    -5.446      1.585      3.086
 INTER + INTRA:          -6.585
 INTER:                  -6.307
 INTRA:                  -0.278
 UNBOUND:                -0.024
  Name = BGC
  6 active torsions:
  status: ('A' for Active; 'I' for Inactive)
    1  A    between atoms: C_1  and  O_8
    2  A    between atoms: C_2  and  O_9
    3  A    between atoms: C_3  and  O_10
    4  A    between atoms: C_4  and  C_5
    5  A    between atoms: C_5  and  O_12
    6  A    between atoms: C_6  and  O_7
                            x       y       z     vdW  Elec       q    Type
                         _______ _______ _______ _____ _____    ______ ____

>  <TORSDO>  (1) 
F 6

$$$$
