BGC
     RDKit          3D

 12 12  0  0  1  0  0  0  0  0999 V2000
   48.6760    7.0390   26.2260 C   0  0  0  0  0  3  0  0  0  0  0  0
   47.1410    6.9380   26.2770 C   0  0  0  0  0  3  0  0  0  0  0  0
   46.4970    8.2250   25.7320 C   0  0  0  0  0  3  0  0  0  0  0  0
   47.1370    9.5000   26.3370 C   0  0  0  0  0  3  0  0  0  0  0  0
   49.1620    8.3490   26.8750 C   0  0  0  0  0  3  0  0  0  0  0  0
   48.5610    9.4990   26.2980 O   0  0  0  0  0  0  0  0  0  0  0  0
   48.9830    8.3350   28.2680 O   0  0  0  0  0  0  0  0  0  0  0  0
   49.1200    6.9970   24.8930 O   0  0  0  0  0  0  0  0  0  0  0  0
   46.7060    6.7060   27.5920 O   0  0  0  0  0  0  0  0  0  0  0  0
   46.6390    8.2700   24.3340 O   0  0  0  0  0  0  0  0  0  0  0  0
   46.5720    9.8810   27.7200 C   0  0  0  0  0  2  0  0  0  0  0  0
   47.3050   10.9500   28.2530 O   0  0  0  0  0  0  0  0  0  0  0  0
  1  8  1  0
  1  2  1  0
  1  5  1  0
  2  9  1  0
  3 10  1  0
  3  2  1  0
  3  4  1  0
  4 11  1  0
  5  7  1  0
  6  4  1  0
  6  5  1  0
 11 12  1  0
M  RAD  6   1   2   2   2   3   2   4   2   5   2  11   3
M  END
>  <MODEL>  (1) 
14

>  <REMARK>  (1) 
 VINA RESULT:    -5.209      1.615      3.786
 INTER + INTRA:          -6.299
 INTER:                  -6.062
 INTRA:                  -0.237
 UNBOUND:                -0.024
  Name = BGC
  6 active torsions:
  status: ('A' for Active; 'I' for Inactive)
    1  A    between atoms: C_1  and  O_8
    2  A    between atoms: C_2  and  O_9
    3  A    between atoms: C_3  and  O_10
    4  A    between atoms: C_4  and  C_5
    5  A    between atoms: C_5  and  O_12
    6  A    between atoms: C_6  and  O_7
                            x       y       z     vdW  Elec       q    Type
                         _______ _______ _______ _____ _____    ______ ____

>  <TORSDO>  (1) 
F 6

$$$$
