BGC
     RDKit          3D

 12 12  0  0  1  0  0  0  0  0999 V2000
   48.5850   10.5980   26.3780 C   0  0  0  0  0  3  0  0  0  0  0  0
   47.6190    9.5480   25.8020 C   0  0  0  0  0  3  0  0  0  0  0  0
   46.4520    9.2980   26.7730 C   0  0  0  0  0  3  0  0  0  0  0  0
   46.9390    9.0790   28.2280 C   0  0  0  0  0  3  0  0  0  0  0  0
   48.9890   10.2390   27.8210 C   0  0  0  0  0  3  0  0  0  0  0  0
   47.8670   10.0630   28.6740 O   0  0  0  0  0  0  0  0  0  0  0  0
   49.8300    9.1140   27.8590 O   0  0  0  0  0  0  0  0  0  0  0  0
   47.9800   11.8660   26.3750 O   0  0  0  0  0  0  0  0  0  0  0  0
   48.2950    8.3430   25.5470 O   0  0  0  0  0  0  0  0  0  0  0  0
   45.5740   10.3950   26.7530 O   0  0  0  0  0  0  0  0  0  0  0  0
   47.4030    7.6370   28.5170 C   0  0  0  0  0  2  0  0  0  0  0  0
   47.9960    7.5760   29.7850 O   0  0  0  0  0  0  0  0  0  0  0  0
  1  8  1  0
  1  5  1  0
  2  9  1  0
  2  1  1  0
  2  3  1  0
  3 10  1  0
  3  4  1  0
  4 11  1  0
  4  6  1  0
  5  7  1  0
  5  6  1  0
 11 12  1  0
M  RAD  6   1   2   2   2   3   2   4   2   5   2  11   3
M  END
>  <MODEL>  (1) 
3

>  <REMARK>  (1) 
 VINA RESULT:    -5.620      1.300      3.107
 INTER + INTRA:          -6.794
 INTER:                  -6.555
 INTRA:                  -0.240
 UNBOUND:                -0.024
  Name = BGC
  6 active torsions:
  status: ('A' for Active; 'I' for Inactive)
    1  A    between atoms: C_1  and  O_8
    2  A    between atoms: C_2  and  O_9
    3  A    between atoms: C_3  and  O_10
    4  A    between atoms: C_4  and  C_5
    5  A    between atoms: C_5  and  O_12
    6  A    between atoms: C_6  and  O_7
                            x       y       z     vdW  Elec       q    Type
                         _______ _______ _______ _____ _____    ______ ____

>  <TORSDO>  (1) 
F 6

$$$$
