BGC
     RDKit          3D

 12 12  0  0  1  0  0  0  0  0999 V2000
   47.6110    9.5120   25.7200 C   0  0  0  0  0  3  0  0  0  0  0  0
   48.6310   10.4550   26.3810 C   0  0  0  0  0  3  0  0  0  0  0  0
   49.0740    9.9000   27.7470 C   0  0  0  0  0  3  0  0  0  0  0  0
   47.8700    9.4500   28.6130 C   0  0  0  0  0  3  0  0  0  0  0  0
   46.4700    9.1660   26.6960 C   0  0  0  0  0  3  0  0  0  0  0  0
   46.9450    8.6190   27.9180 O   0  0  0  0  0  0  0  0  0  0  0  0
   45.6360   10.2710   26.9310 O   0  0  0  0  0  0  0  0  0  0  0  0
   48.2420    8.3230   25.3150 O   0  0  0  0  0  0  0  0  0  0  0  0
   48.0840   11.7390   26.5430 O   0  0  0  0  0  0  0  0  0  0  0  0
   49.9270    8.7990   27.5570 O   0  0  0  0  0  0  0  0  0  0  0  0
   47.1890   10.6040   29.3760 C   0  0  0  0  0  2  0  0  0  0  0  0
   48.1300   11.6030   29.6610 O   0  0  0  0  0  0  0  0  0  0  0  0
  1  8  1  0
  1  2  1  0
  1  5  1  0
  2  9  1  0
  2  3  1  0
  3 10  1  0
  3  4  1  0
  4 11  1  0
  5  7  1  0
  5  6  1  0
  6  4  1  0
 11 12  1  0
M  RAD  6   1   2   2   2   3   2   4   2   5   2  11   3
M  END
>  <MODEL>  (1) 
2

>  <REMARK>  (1) 
 VINA RESULT:    -5.804      1.035      3.557
 INTER + INTRA:          -7.016
 INTER:                  -6.750
 INTRA:                  -0.266
 UNBOUND:                -0.024
  Name = BGC
  6 active torsions:
  status: ('A' for Active; 'I' for Inactive)
    1  A    between atoms: C_1  and  O_8
    2  A    between atoms: C_2  and  O_9
    3  A    between atoms: C_3  and  O_10
    4  A    between atoms: C_4  and  C_5
    5  A    between atoms: C_5  and  O_12
    6  A    between atoms: C_6  and  O_7
                            x       y       z     vdW  Elec       q    Type
                         _______ _______ _______ _____ _____    ______ ____

>  <TORSDO>  (1) 
F 6

$$$$
