BGC
     RDKit          3D

 12 12  0  0  1  0  0  0  0  0999 V2000
   48.5950   11.0820   27.5190 C   0  0  0  0  0  3  0  0  0  0  0  0
   49.3620    9.8470   27.0160 C   0  0  0  0  0  3  0  0  0  0  0  0
   48.3830    8.7300   26.6140 C   0  0  0  0  0  3  0  0  0  0  0  0
   47.2960    8.4900   27.6930 C   0  0  0  0  0  3  0  0  0  0  0  0
   47.5630   10.6880   28.5930 C   0  0  0  0  0  3  0  0  0  0  0  0
   46.6640    9.6840   28.1440 O   0  0  0  0  0  0  0  0  0  0  0  0
   48.1840   10.3040   29.7930 O   0  0  0  0  0  0  0  0  0  0  0  0
   47.9270   11.7060   26.4510 O   0  0  0  0  0  0  0  0  0  0  0  0
   50.2430    9.3770   28.0050 O   0  0  0  0  0  0  0  0  0  0  0  0
   47.7500    9.0670   25.4050 O   0  0  0  0  0  0  0  0  0  0  0  0
   47.7590    7.5790   28.8470 C   0  0  0  0  0  2  0  0  0  0  0  0
   48.9800    6.9770   28.5160 O   0  0  0  0  0  0  0  0  0  0  0  0
  1  8  1  0
  1  5  1  0
  2  1  1  0
  2  9  1  0
  3 10  1  0
  3  2  1  0
  3  4  1  0
  4  6  1  0
  4 11  1  0
  5  7  1  0
  6  5  1  0
 12 11  1  0
M  RAD  6   1   2   2   2   3   2   4   2   5   2  11   3
M  END
>  <MODEL>  (1) 
15

>  <REMARK>  (1) 
 VINA RESULT:    -5.194      1.476      2.630
 INTER + INTRA:          -6.281
 INTER:                  -6.081
 INTRA:                  -0.200
 UNBOUND:                -0.024
  Name = BGC
  6 active torsions:
  status: ('A' for Active; 'I' for Inactive)
    1  A    between atoms: C_1  and  O_8
    2  A    between atoms: C_2  and  O_9
    3  A    between atoms: C_3  and  O_10
    4  A    between atoms: C_4  and  C_5
    5  A    between atoms: C_5  and  O_12
    6  A    between atoms: C_6  and  O_7
                            x       y       z     vdW  Elec       q    Type
                         _______ _______ _______ _____ _____    ______ ____

>  <TORSDO>  (1) 
F 6

$$$$
