BGC
     RDKit          3D

 12 12  0  0  1  0  0  0  0  0999 V2000
   48.4020    9.3900   25.9710 C   0  0  0  0  0  3  0  0  0  0  0  0
   48.7680    8.4080   27.0980 C   0  0  0  0  0  3  0  0  0  0  0  0
   47.5610    8.1720   28.0220 C   0  0  0  0  0  3  0  0  0  0  0  0
   46.8790    9.4990   28.4430 C   0  0  0  0  0  3  0  0  0  0  0  0
   47.7470   10.6620   26.5440 C   0  0  0  0  0  3  0  0  0  0  0  0
   46.6150   10.3770   27.3530 O   0  0  0  0  0  0  0  0  0  0  0  0
   48.6740   11.4540   27.2400 O   0  0  0  0  0  0  0  0  0  0  0  0
   47.5100    8.7830   25.0700 O   0  0  0  0  0  0  0  0  0  0  0  0
   49.8530    8.8970   27.8440 O   0  0  0  0  0  0  0  0  0  0  0  0
   46.6130    7.3670   27.3680 O   0  0  0  0  0  0  0  0  0  0  0  0
   47.5680   10.2010   29.6300 C   0  0  0  0  0  2  0  0  0  0  0  0
   47.2060   11.5550   29.6540 O   0  0  0  0  0  0  0  0  0  0  0  0
  1  8  1  0
  1  5  1  0
  1  2  1  0
  2  9  1  0
  2  3  1  0
  3 10  1  0
  3  4  1  0
  4 11  1  0
  5  7  1  0
  5  6  1  0
  6  4  1  0
 11 12  1  0
M  RAD  6   1   2   2   2   3   2   4   2   5   2  11   3
M  END
>  <MODEL>  (1) 
16

>  <REMARK>  (1) 
 VINA RESULT:    -5.160      1.156      3.646
 INTER + INTRA:          -6.241
 INTER:                  -6.067
 INTRA:                  -0.174
 UNBOUND:                -0.024
  Name = BGC
  6 active torsions:
  status: ('A' for Active; 'I' for Inactive)
    1  A    between atoms: C_1  and  O_8
    2  A    between atoms: C_2  and  O_9
    3  A    between atoms: C_3  and  O_10
    4  A    between atoms: C_4  and  C_5
    5  A    between atoms: C_5  and  O_12
    6  A    between atoms: C_6  and  O_7
                            x       y       z     vdW  Elec       q    Type
                         _______ _______ _______ _____ _____    ______ ____

>  <TORSDO>  (1) 
F 6

$$$$
