BGC
     RDKit          3D

 12 12  0  0  1  0  0  0  0  0999 V2000
   43.9760    8.1690   26.3680 C   0  0  0  0  0  3  0  0  0  0  0  0
   44.6050    9.3220   25.5660 C   0  0  0  0  0  3  0  0  0  0  0  0
   46.1260    9.1270   25.4430 C   0  0  0  0  0  3  0  0  0  0  0  0
   46.7830    8.7790   26.8030 C   0  0  0  0  0  3  0  0  0  0  0  0
   44.7260    7.9510   27.6960 C   0  0  0  0  0  3  0  0  0  0  0  0
   46.1170    7.7360   27.5090 O   0  0  0  0  0  0  0  0  0  0  0  0
   44.4980    9.0040   28.5980 O   0  0  0  0  0  0  0  0  0  0  0  0
   44.0170    6.9800   25.6200 O   0  0  0  0  0  0  0  0  0  0  0  0
   44.3290   10.5560   26.1780 O   0  0  0  0  0  0  0  0  0  0  0  0
   46.3990    8.0910   24.5330 O   0  0  0  0  0  0  0  0  0  0  0  0
   47.0770   10.0100   27.6830 C   0  0  0  0  0  2  0  0  0  0  0  0
   47.1780   11.1540   26.8790 O   0  0  0  0  0  0  0  0  0  0  0  0
  1  8  1  0
  1  5  1  0
  2  9  1  0
  2  1  1  0
  3 10  1  0
  3  2  1  0
  3  4  1  0
  4  6  1  0
  4 11  1  0
  5  7  1  0
  6  5  1  0
 12 11  1  0
M  RAD  6   1   2   2   2   3   2   4   2   5   2  11   3
M  END
>  <MODEL>  (1) 
8

>  <REMARK>  (1) 
 VINA RESULT:    -5.313      1.909      3.948
 INTER + INTRA:          -6.425
 INTER:                  -6.147
 INTRA:                  -0.277
 UNBOUND:                -0.024
  Name = BGC
  6 active torsions:
  status: ('A' for Active; 'I' for Inactive)
    1  A    between atoms: C_1  and  O_8
    2  A    between atoms: C_2  and  O_9
    3  A    between atoms: C_3  and  O_10
    4  A    between atoms: C_4  and  C_5
    5  A    between atoms: C_5  and  O_12
    6  A    between atoms: C_6  and  O_7
                            x       y       z     vdW  Elec       q    Type
                         _______ _______ _______ _____ _____    ______ ____

>  <TORSDO>  (1) 
F 6

$$$$
