BGC
     RDKit          3D

 12 12  0  0  1  0  0  0  0  0999 V2000
   47.6700   10.6290   28.3820 C   0  0  0  0  0  3  0  0  0  0  0  0
   47.9320    9.1520   28.7250 C   0  0  0  0  0  3  0  0  0  0  0  0
   48.8430    8.5060   27.6660 C   0  0  0  0  0  3  0  0  0  0  0  0
   48.3740    8.8180   26.2220 C   0  0  0  0  0  3  0  0  0  0  0  0
   47.1990   10.7780   26.9220 C   0  0  0  0  0  3  0  0  0  0  0  0
   48.1050   10.1980   25.9950 O   0  0  0  0  0  0  0  0  0  0  0  0
   45.9020   10.2710   26.7410 O   0  0  0  0  0  0  0  0  0  0  0  0
   48.8410   11.3840   28.5640 O   0  0  0  0  0  0  0  0  0  0  0  0
   46.7220    8.4430   28.8110 O   0  0  0  0  0  0  0  0  0  0  0  0
   50.1590    8.9750   27.8230 O   0  0  0  0  0  0  0  0  0  0  0  0
   47.2470    7.8930   25.7230 C   0  0  0  0  0  2  0  0  0  0  0  0
   46.7510    8.3680   24.5010 O   0  0  0  0  0  0  0  0  0  0  0  0
  1  8  1  0
  1  2  1  0
  2  9  1  0
  3 10  1  0
  3  2  1  0
  4 11  1  0
  4  3  1  0
  5  7  1  0
  5  1  1  0
  6  4  1  0
  6  5  1  0
 12 11  1  0
M  RAD  6   1   2   2   2   3   2   4   2   5   2  11   3
M  END
>  <MODEL>  (1) 
4

>  <REMARK>  (1) 
 VINA RESULT:    -5.587      1.197      2.202
 INTER + INTRA:          -6.755
 INTER:                  -6.515
 INTRA:                  -0.239
 UNBOUND:                -0.024
  Name = BGC
  6 active torsions:
  status: ('A' for Active; 'I' for Inactive)
    1  A    between atoms: C_1  and  O_8
    2  A    between atoms: C_2  and  O_9
    3  A    between atoms: C_3  and  O_10
    4  A    between atoms: C_4  and  C_5
    5  A    between atoms: C_5  and  O_12
    6  A    between atoms: C_6  and  O_7
                            x       y       z     vdW  Elec       q    Type
                         _______ _______ _______ _____ _____    ______ ____

>  <TORSDO>  (1) 
F 6

$$$$
