BGC
     RDKit          3D

 12 12  0  0  1  0  0  0  0  0999 V2000
   47.7730   10.5850   28.5120 C   0  0  0  0  0  3  0  0  0  0  0  0
   46.5040    9.9290   27.9410 C   0  0  0  0  0  3  0  0  0  0  0  0
   46.8000    8.4900   27.4830 C   0  0  0  0  0  3  0  0  0  0  0  0
   48.0830    8.4040   26.6180 C   0  0  0  0  0  3  0  0  0  0  0  0
   48.9570   10.4300   27.5380 C   0  0  0  0  0  3  0  0  0  0  0  0
   49.2020    9.0750   27.1890 O   0  0  0  0  0  0  0  0  0  0  0  0
   48.7910   11.2220   26.3900 O   0  0  0  0  0  0  0  0  0  0  0  0
   48.1120    9.9950   29.7410 O   0  0  0  0  0  0  0  0  0  0  0  0
   46.0020   10.6800   26.8640 O   0  0  0  0  0  0  0  0  0  0  0  0
   46.9560    7.6580   28.6050 O   0  0  0  0  0  0  0  0  0  0  0  0
   47.8580    8.7610   25.1360 C   0  0  0  0  0  2  0  0  0  0  0  0
   46.6010    8.2980   24.7230 O   0  0  0  0  0  0  0  0  0  0  0  0
  1  8  1  0
  2  9  1  0
  2  1  1  0
  3  2  1  0
  3 10  1  0
  4 11  1  0
  4  6  1  0
  4  3  1  0
  5  7  1  0
  5  1  1  0
  6  5  1  0
 12 11  1  0
M  RAD  6   1   2   2   2   3   2   4   2   5   2  11   3
M  END
>  <MODEL>  (1) 
5

>  <REMARK>  (1) 
 VINA RESULT:    -5.531      1.134      2.893
 INTER + INTRA:          -6.687
 INTER:                  -6.479
 INTRA:                  -0.208
 UNBOUND:                -0.024
  Name = BGC
  6 active torsions:
  status: ('A' for Active; 'I' for Inactive)
    1  A    between atoms: C_1  and  O_8
    2  A    between atoms: C_2  and  O_9
    3  A    between atoms: C_3  and  O_10
    4  A    between atoms: C_4  and  C_5
    5  A    between atoms: C_5  and  O_12
    6  A    between atoms: C_6  and  O_7
                            x       y       z     vdW  Elec       q    Type
                         _______ _______ _______ _____ _____    ______ ____

>  <TORSDO>  (1) 
F 6

$$$$
