BGC
     RDKit          3D

 12 12  0  0  1  0  0  0  0  0999 V2000
   49.1500   10.4750   27.5360 C   0  0  0  0  0  3  0  0  0  0  0  0
   49.1340    8.9890   27.1400 C   0  0  0  0  0  3  0  0  0  0  0  0
   47.7430    8.5840   26.6200 C   0  0  0  0  0  3  0  0  0  0  0  0
   46.6050    9.0740   27.5520 C   0  0  0  0  0  3  0  0  0  0  0  0
   47.9710   10.8080   28.4710 C   0  0  0  0  0  3  0  0  0  0  0  0
   46.7150   10.4470   27.9130 O   0  0  0  0  0  0  0  0  0  0  0  0
   48.1390   10.2340   29.7410 O   0  0  0  0  0  0  0  0  0  0  0  0
   49.0650   11.2830   26.3890 O   0  0  0  0  0  0  0  0  0  0  0  0
   49.4880    8.1830   28.2350 O   0  0  0  0  0  0  0  0  0  0  0  0
   47.5400    9.1250   25.3390 O   0  0  0  0  0  0  0  0  0  0  0  0
   46.3510    8.1500   28.7590 C   0  0  0  0  0  2  0  0  0  0  0  0
   45.4630    8.7680   29.6500 O   0  0  0  0  0  0  0  0  0  0  0  0
  1  8  1  0
  1  5  1  0
  2  1  1  0
  2  9  1  0
  3 10  1  0
  3  2  1  0
  3  4  1  0
  4  6  1  0
  4 11  1  0
  5  7  1  0
  6  5  1  0
 11 12  1  0
M  RAD  6   1   2   2   2   3   2   4   2   5   2  11   3
M  END
>  <MODEL>  (1) 
20

>  <REMARK>  (1) 
 VINA RESULT:    -4.960      1.255      2.698
 INTER + INTRA:          -5.999
 INTER:                  -5.760
 INTRA:                  -0.239
 UNBOUND:                -0.024
  Name = BGC
  6 active torsions:
  status: ('A' for Active; 'I' for Inactive)
    1  A    between atoms: C_1  and  O_8
    2  A    between atoms: C_2  and  O_9
    3  A    between atoms: C_3  and  O_10
    4  A    between atoms: C_4  and  C_5
    5  A    between atoms: C_5  and  O_12
    6  A    between atoms: C_6  and  O_7
                            x       y       z     vdW  Elec       q    Type
                         _______ _______ _______ _____ _____    ______ ____

>  <TORSDO>  (1) 
F 6

$$$$
