BGC
     RDKit          3D

 12 12  0  0  1  0  0  0  0  0999 V2000
   45.8300    7.8460   26.7620 C   0  0  0  0  0  3  0  0  0  0  0  0
   46.9300    7.6730   25.7000 C   0  0  0  0  0  3  0  0  0  0  0  0
   48.3010    8.0720   26.2730 C   0  0  0  0  0  3  0  0  0  0  0  0
   48.2510    9.4320   27.0150 C   0  0  0  0  0  3  0  0  0  0  0  0
   45.8990    9.2470   27.4000 C   0  0  0  0  0  3  0  0  0  0  0  0
   47.1780    9.5360   27.9460 O   0  0  0  0  0  0  0  0  0  0  0  0
   45.5020   10.2480   26.4980 O   0  0  0  0  0  0  0  0  0  0  0  0
   45.9730    6.8780   27.7710 O   0  0  0  0  0  0  0  0  0  0  0  0
   46.6440    8.4460   24.5630 O   0  0  0  0  0  0  0  0  0  0  0  0
   48.7460    7.0860   27.1710 O   0  0  0  0  0  0  0  0  0  0  0  0
   48.3590   10.6530   26.0800 C   0  0  0  0  0  2  0  0  0  0  0  0
   48.0280   11.8190   26.7830 O   0  0  0  0  0  0  0  0  0  0  0  0
  1  5  1  0
  1  8  1  0
  2  9  1  0
  2  3  1  0
  2  1  1  0
  3  4  1  0
  3 10  1  0
  4 11  1  0
  4  6  1  0
  5  7  1  0
  5  6  1  0
 11 12  1  0
M  RAD  6   1   2   2   2   3   2   4   2   5   2  11   3
M  END
>  <MODEL>  (1) 
12

>  <REMARK>  (1) 
 VINA RESULT:    -5.229      1.427      3.467
 INTER + INTRA:          -6.323
 INTER:                  -6.090
 INTRA:                  -0.233
 UNBOUND:                -0.024
  Name = BGC
  6 active torsions:
  status: ('A' for Active; 'I' for Inactive)
    1  A    between atoms: C_1  and  O_8
    2  A    between atoms: C_2  and  O_9
    3  A    between atoms: C_3  and  O_10
    4  A    between atoms: C_4  and  C_5
    5  A    between atoms: C_5  and  O_12
    6  A    between atoms: C_6  and  O_7
                            x       y       z     vdW  Elec       q    Type
                         _______ _______ _______ _____ _____    ______ ____

>  <TORSDO>  (1) 
F 6

$$$$
