AMQ
 OpenBabel09132604103D

 17 17  0  0  1  0  0  0  0  0999 V2000
   -1.7320   48.5600    8.8980 C   0  0  0  0  0  2  0  0  0  0  0  0
   -1.6030   49.8930    9.5830 C   0  0  0  0  0  0  0  0  0  0  0  0
   -0.5070   50.7310    9.6390 C   0  0  0  0  0  0  0  0  0  0  0  0
   -2.5410   50.5420   10.3660 C   0  0  0  0  0  0  0  0  0  0  0  0
   -3.9270   50.0810   10.6740 C   0  0  0  0  0  1  0  0  0  0  0  0
   -0.7890   51.8070   10.3960 N   0  0  0  0  0  0  0  0  0  0  0  0
   -2.0140   51.6600   10.8140 O   0  0  0  0  0  0  0  0  0  0  0  0
    0.7270   50.5280    9.0280 O   0  0  0  0  0  0  0  0  0  0  0  0
    1.5960   50.6770    9.5260 H   0  0  0  0  0  0  0  0  0  0  0  0
   -1.7830   48.7030    7.3650 C   0  0  2  0  0  3  0  0  0  0  0  0
   -2.9390   47.9900    6.8150 N   0  0  0  0  0  0  0  0  0  0  0  0
   -2.6920   47.6460    5.8600 H   0  0  0  0  0  0  0  0  0  0  0  0
   -3.1000   47.1300    7.3870 H   0  0  0  0  0  0  0  0  0  0  0  0
   -0.5190   48.1470    6.7740 C   0  0  0  0  0  0  0  0  0  0  0  0
   -0.3880   46.9020    6.6200 O   0  0  0  0  0  0  0  0  0  0  0  0
    0.4960   49.0070    6.3660 O   0  0  0  0  0  0  0  0  0  0  0  0
    0.7210   49.1160    5.3840 H   0  0  0  0  0  0  0  0  0  0  0  0
  1  2  1  0  0  0  0
  2  3  1  0  0  0  0
  2  4  2  0  0  0  0
  3  6  2  0  0  0  0
  4  5  1  0  0  0  0
  4  7  1  0  0  0  0
  6  7  1  0  0  0  0
  8  9  1  0  0  0  0
  8  3  1  0  0  0  0
 10  1  1  1  0  0  0
 11 10  1  0  0  0  0
 11 13  1  0  0  0  0
 12 11  1  0  0  0  0
 14 10  1  0  0  0  0
 15 14  2  0  0  0  0
 16 14  1  0  0  0  0
 17 16  1  0  0  0  0
M  END
>  <MODEL>
13

>  <REMARK>
 VINA RESULT:    -5.057      1.896      4.242
 INTER + INTRA:          -6.855
 INTER:                  -6.390
 INTRA:                  -0.465
 UNBOUND:                -0.467
  Name = AMQ
  7 active torsions:
  status: ('A' for Active; 'I' for Inactive)
    1  A    between atoms: N_1  and  CA_2
    2  A    between atoms: CA_2  and  C_3
    3  A    between atoms: CA_2  and  C_6
    4  A    between atoms: C_3  and  OXT_5
    5  A    between atoms: C_6  and  C_7
    6  A    between atoms: C_8  and  O_11
    7  A    between atoms: C_9  and  C_10
                            x       y       z     vdW  Elec       q    Type
                         _______ _______ _______ _____ _____    ______ ____

>  <TORSDO>
F 6

$$$$
