AMQ
 OpenBabel09132604103D

 17 17  0  0  1  0  0  0  0  0999 V2000
   -2.4080   45.4940   12.0500 C   0  0  0  0  0  2  0  0  0  0  0  0
   -2.9380   46.2840   13.2150 C   0  0  0  0  0  0  0  0  0  0  0  0
   -3.6880   45.8400   14.2870 C   0  0  0  0  0  0  0  0  0  0  0  0
   -2.8470   47.6470   13.4320 C   0  0  0  0  0  0  0  0  0  0  0  0
   -2.1500   48.6480   12.5710 C   0  0  0  0  0  1  0  0  0  0  0  0
   -4.0030   46.8760   15.0870 N   0  0  0  0  0  0  0  0  0  0  0  0
   -3.4830   47.9400   14.5440 O   0  0  0  0  0  0  0  0  0  0  0  0
   -4.0870   44.5310   14.5380 O   0  0  0  0  0  0  0  0  0  0  0  0
   -4.0050   44.1200   15.4600 H   0  0  0  0  0  0  0  0  0  0  0  0
   -3.5410   44.9240   11.1770 C   0  0  2  0  0  3  0  0  0  0  0  0
   -3.6530   43.4740   11.3510 N   0  0  0  0  0  0  0  0  0  0  0  0
   -4.6560   43.2370   11.5270 H   0  0  0  0  0  0  0  0  0  0  0  0
   -3.4130   43.0120   10.4440 H   0  0  0  0  0  0  0  0  0  0  0  0
   -3.2620   45.2390    9.7350 C   0  0  0  0  0  0  0  0  0  0  0  0
   -2.8450   46.3820    9.4070 O   0  0  0  0  0  0  0  0  0  0  0  0
   -3.4340   44.2580    8.7620 O   0  0  0  0  0  0  0  0  0  0  0  0
   -4.0450   43.4670    8.9240 H   0  0  0  0  0  0  0  0  0  0  0  0
  1  2  1  0  0  0  0
  2  4  2  0  0  0  0
  2  3  1  0  0  0  0
  3  8  1  0  0  0  0
  3  6  2  0  0  0  0
  4  7  1  0  0  0  0
  5  4  1  0  0  0  0
  7  6  1  0  0  0  0
  8  9  1  0  0  0  0
 10 11  1  0  0  0  0
 10  1  1  1  0  0  0
 11 12  1  0  0  0  0
 13 11  1  0  0  0  0
 14 10  1  0  0  0  0
 15 14  2  0  0  0  0
 16 17  1  0  0  0  0
 16 14  1  0  0  0  0
M  END
>  <MODEL>
2

>  <REMARK>
 VINA RESULT:    -5.540      4.932      7.181
 INTER + INTRA:          -7.464
 INTER:                  -7.125
 INTRA:                  -0.340
 UNBOUND:                -0.467
  Name = AMQ
  7 active torsions:
  status: ('A' for Active; 'I' for Inactive)
    1  A    between atoms: N_1  and  CA_2
    2  A    between atoms: CA_2  and  C_3
    3  A    between atoms: CA_2  and  C_6
    4  A    between atoms: C_3  and  OXT_5
    5  A    between atoms: C_6  and  C_7
    6  A    between atoms: C_8  and  O_11
    7  A    between atoms: C_9  and  C_10
                            x       y       z     vdW  Elec       q    Type
                         _______ _______ _______ _____ _____    ______ ____

>  <TORSDO>
F 6

$$$$
