AMQ
 OpenBabel09132604103D

 17 17  0  0  1  0  0  0  0  0999 V2000
   -1.5570   49.0570    8.1570 C   0  0  0  0  0  2  0  0  0  0  0  0
   -1.0310   49.4280    9.5170 C   0  0  0  0  0  0  0  0  0  0  0  0
   -0.1290   50.4200    9.8510 C   0  0  0  0  0  0  0  0  0  0  0  0
   -1.2870   48.8090   10.7260 C   0  0  0  0  0  0  0  0  0  0  0  0
   -2.1920   47.6460   10.9660 C   0  0  0  0  0  1  0  0  0  0  0  0
    0.1160   50.3910   11.1740 N   0  0  0  0  0  0  0  0  0  0  0  0
   -0.5940   49.4150   11.6640 O   0  0  0  0  0  0  0  0  0  0  0  0
    0.4670   51.3290    8.9820 O   0  0  0  0  0  0  0  0  0  0  0  0
    0.2270   52.3130    8.9980 H   0  0  0  0  0  0  0  0  0  0  0  0
   -0.5460   48.2140    7.3590 C   0  0  2  0  0  3  0  0  0  0  0  0
    0.3740   49.0760    6.6110 N   0  0  0  0  0  0  0  0  0  0  0  0
    0.4960   48.6780    5.6520 H   0  0  0  0  0  0  0  0  0  0  0  0
   -0.0840   50.0050    6.4700 H   0  0  0  0  0  0  0  0  0  0  0  0
   -1.2880   47.3220    6.4050 C   0  0  0  0  0  0  0  0  0  0  0  0
   -2.4170   47.6700    5.9630 O   0  0  0  0  0  0  0  0  0  0  0  0
   -0.7180   46.1240    5.9840 O   0  0  0  0  0  0  0  0  0  0  0  0
   -0.0500   46.1060    5.2220 H   0  0  0  0  0  0  0  0  0  0  0  0
  1  2  1  0  0  0  0
  2  3  1  0  0  0  0
  2  4  2  0  0  0  0
  3  6  2  0  0  0  0
  4  5  1  0  0  0  0
  4  7  1  0  0  0  0
  6  7  1  0  0  0  0
  8  9  1  0  0  0  0
  8  3  1  0  0  0  0
 10  1  1  6  0  0  0
 11 10  1  0  0  0  0
 12 11  1  0  0  0  0
 13 11  1  0  0  0  0
 14 10  1  0  0  0  0
 15 14  2  0  0  0  0
 16 14  1  0  0  0  0
 17 16  1  0  0  0  0
M  END
>  <MODEL>
6

>  <REMARK>
 VINA RESULT:    -5.297      1.629      4.625
 INTER + INTRA:          -7.157
 INTER:                  -6.794
 INTRA:                  -0.363
 UNBOUND:                -0.467
  Name = AMQ
  7 active torsions:
  status: ('A' for Active; 'I' for Inactive)
    1  A    between atoms: N_1  and  CA_2
    2  A    between atoms: CA_2  and  C_3
    3  A    between atoms: CA_2  and  C_6
    4  A    between atoms: C_3  and  OXT_5
    5  A    between atoms: C_6  and  C_7
    6  A    between atoms: C_8  and  O_11
    7  A    between atoms: C_9  and  C_10
                            x       y       z     vdW  Elec       q    Type
                         _______ _______ _______ _____ _____    ______ ____

>  <TORSDO>
F 6

$$$$
