AMQ
 OpenBabel09132604103D

 17 17  0  0  1  0  0  0  0  0999 V2000
   -0.0690   50.0590   12.2040 C   0  0  0  0  0  2  0  0  0  0  0  0
   -0.7050   49.7230   10.8820 C   0  0  0  0  0  0  0  0  0  0  0  0
   -0.3850   50.1990    9.6260 C   0  0  0  0  0  0  0  0  0  0  0  0
   -1.7980   48.9100   10.6460 C   0  0  0  0  0  0  0  0  0  0  0  0
   -2.5750   48.1330   11.6570 C   0  0  0  0  0  1  0  0  0  0  0  0
   -1.2290   49.6870    8.7110 N   0  0  0  0  0  0  0  0  0  0  0  0
   -2.0600   48.9200    9.3570 O   0  0  0  0  0  0  0  0  0  0  0  0
    0.6420   51.0840    9.3090 O   0  0  0  0  0  0  0  0  0  0  0  0
    1.6030   50.7730    9.2290 H   0  0  0  0  0  0  0  0  0  0  0  0
   -0.3210   51.5230   12.6080 C   0  0  2  0  0  3  0  0  0  0  0  0
   -1.3670   52.1200   11.7740 N   0  0  0  0  0  0  0  0  0  0  0  0
   -2.2980   51.8430   12.1600 H   0  0  0  0  0  0  0  0  0  0  0  0
   -1.3210   53.1600   11.8790 H   0  0  0  0  0  0  0  0  0  0  0  0
    0.9530   52.3050   12.4550 C   0  0  0  0  0  0  0  0  0  0  0  0
    1.2160   52.8770   11.3630 O   0  0  0  0  0  0  0  0  0  0  0  0
    1.8300   52.4240   13.5300 O   0  0  0  0  0  0  0  0  0  0  0  0
    2.3290   53.2890   13.6980 H   0  0  0  0  0  0  0  0  0  0  0  0
  2  1  1  0  0  0  0
  3  2  1  0  0  0  0
  4  2  2  0  0  0  0
  4  5  1  0  0  0  0
  6  7  1  0  0  0  0
  6  3  2  0  0  0  0
  7  4  1  0  0  0  0
  8  3  1  0  0  0  0
  9  8  1  0  0  0  0
 10  1  1  6  0  0  0
 11 13  1  0  0  0  0
 11 12  1  0  0  0  0
 11 10  1  0  0  0  0
 14 10  1  0  0  0  0
 14 16  1  0  0  0  0
 15 14  2  0  0  0  0
 16 17  1  0  0  0  0
M  END
>  <MODEL>
9

>  <REMARK>
 VINA RESULT:    -5.122      2.843      3.656
 INTER + INTRA:          -6.936
 INTER:                  -6.722
 INTRA:                  -0.214
 UNBOUND:                -0.467
  Name = AMQ
  7 active torsions:
  status: ('A' for Active; 'I' for Inactive)
    1  A    between atoms: N_1  and  CA_2
    2  A    between atoms: CA_2  and  C_3
    3  A    between atoms: CA_2  and  C_6
    4  A    between atoms: C_3  and  OXT_5
    5  A    between atoms: C_6  and  C_7
    6  A    between atoms: C_8  and  O_11
    7  A    between atoms: C_9  and  C_10
                            x       y       z     vdW  Elec       q    Type
                         _______ _______ _______ _____ _____    ______ ____

>  <TORSDO>
F 6

$$$$
