AMQ
 OpenBabel09132604103D

 17 17  0  0  1  0  0  0  0  0999 V2000
   -2.8160   47.2110   10.6190 C   0  0  0  0  0  2  0  0  0  0  0  0
   -2.5050   46.7370   12.0130 C   0  0  0  0  0  0  0  0  0  0  0  0
   -2.3990   45.4420   12.4790 C   0  0  0  0  0  0  0  0  0  0  0  0
   -2.3220   47.5020   13.1510 C   0  0  0  0  0  0  0  0  0  0  0  0
   -2.3460   48.9920   13.2450 C   0  0  0  0  0  1  0  0  0  0  0  0
   -2.1570   45.4480   13.8030 N   0  0  0  0  0  0  0  0  0  0  0  0
   -2.1170   46.6970   14.1700 O   0  0  0  0  0  0  0  0  0  0  0  0
   -2.5250   44.2760   11.7310 O   0  0  0  0  0  0  0  0  0  0  0  0
   -2.9780   43.4510   12.1070 H   0  0  0  0  0  0  0  0  0  0  0  0
   -1.5390   47.5480    9.8280 C   0  0  2  0  0  3  0  0  0  0  0  0
   -1.7760   48.6640    8.9090 N   0  0  0  0  0  0  0  0  0  0  0  0
   -0.8800   48.8850    8.4170 H   0  0  0  0  0  0  0  0  0  0  0  0
   -2.4310   48.3430    8.1600 H   0  0  0  0  0  0  0  0  0  0  0  0
   -1.1050   46.3380    9.0500 C   0  0  0  0  0  0  0  0  0  0  0  0
    0.0380   46.3060    8.5170 O   0  0  0  0  0  0  0  0  0  0  0  0
   -1.9520   45.2390    8.9420 O   0  0  0  0  0  0  0  0  0  0  0  0
   -2.8040   45.2920    8.3970 H   0  0  0  0  0  0  0  0  0  0  0  0
  1  2  1  0  0  0  0
  2  3  1  0  0  0  0
  2  4  2  0  0  0  0
  3  6  2  0  0  0  0
  4  5  1  0  0  0  0
  4  7  1  0  0  0  0
  6  7  1  0  0  0  0
  8  9  1  0  0  0  0
  8  3  1  0  0  0  0
 10  1  1  6  0  0  0
 11 10  1  0  0  0  0
 12 11  1  0  0  0  0
 13 11  1  0  0  0  0
 14 10  1  0  0  0  0
 15 14  2  0  0  0  0
 16 14  1  0  0  0  0
 17 16  1  0  0  0  0
M  END
>  <MODEL>
19

>  <REMARK>
 VINA RESULT:    -4.969      3.841      5.836
 INTER + INTRA:          -6.744
 INTER:                  -6.248
 INTRA:                  -0.496
 UNBOUND:                -0.467
  Name = AMQ
  7 active torsions:
  status: ('A' for Active; 'I' for Inactive)
    1  A    between atoms: N_1  and  CA_2
    2  A    between atoms: CA_2  and  C_3
    3  A    between atoms: CA_2  and  C_6
    4  A    between atoms: C_3  and  OXT_5
    5  A    between atoms: C_6  and  C_7
    6  A    between atoms: C_8  and  O_11
    7  A    between atoms: C_9  and  C_10
                            x       y       z     vdW  Elec       q    Type
                         _______ _______ _______ _____ _____    ______ ____

>  <TORSDO>
F 6

$$$$
