AMQ
 OpenBabel09132604103D

 17 17  0  0  1  0  0  0  0  0999 V2000
   -1.0660   48.8280    9.1740 C   0  0  0  0  0  2  0  0  0  0  0  0
   -1.2900   48.4290    7.7400 C   0  0  0  0  0  0  0  0  0  0  0  0
   -0.4280   48.5500    6.6670 C   0  0  0  0  0  0  0  0  0  0  0  0
   -2.4380   47.9110    7.1700 C   0  0  0  0  0  0  0  0  0  0  0  0
   -3.7180   47.5830    7.8670 C   0  0  0  0  0  1  0  0  0  0  0  0
   -1.0310   48.1190    5.5430 N   0  0  0  0  0  0  0  0  0  0  0  0
   -2.2310   47.7440    5.8830 O   0  0  0  0  0  0  0  0  0  0  0  0
    0.8710   49.0460    6.6960 O   0  0  0  0  0  0  0  0  0  0  0  0
    1.1570   49.8180    6.1050 H   0  0  0  0  0  0  0  0  0  0  0  0
   -0.9320   50.3540    9.3320 C   0  0  2  0  0  3  0  0  0  0  0  0
    0.4770   50.7550    9.3340 N   0  0  0  0  0  0  0  0  0  0  0  0
    1.0660   49.8980    9.2320 H   0  0  0  0  0  0  0  0  0  0  0  0
    0.6610   51.3220    8.4750 H   0  0  0  0  0  0  0  0  0  0  0  0
   -1.5800   50.7770   10.6200 C   0  0  0  0  0  0  0  0  0  0  0  0
   -1.9430   49.9080   11.4590 O   0  0  0  0  0  0  0  0  0  0  0  0
   -1.7510   52.1290   10.9030 O   0  0  0  0  0  0  0  0  0  0  0  0
   -1.0110   52.6650   11.3400 H   0  0  0  0  0  0  0  0  0  0  0  0
  2  1  1  0  0  0  0
  3  8  1  0  0  0  0
  3  2  1  0  0  0  0
  4  2  2  0  0  0  0
  4  5  1  0  0  0  0
  6  7  1  0  0  0  0
  6  3  2  0  0  0  0
  7  4  1  0  0  0  0
  9  8  1  0  0  0  0
 10  1  1  1  0  0  0
 10 11  1  0  0  0  0
 10 14  1  0  0  0  0
 12 11  1  0  0  0  0
 13 11  1  0  0  0  0
 14 16  1  0  0  0  0
 14 15  2  0  0  0  0
 16 17  1  0  0  0  0
M  END
>  <MODEL>
5

>  <REMARK>
 VINA RESULT:    -5.337      1.640      1.666
 INTER + INTRA:          -7.208
 INTER:                  -6.830
 INTRA:                  -0.378
 UNBOUND:                -0.467
  Name = AMQ
  7 active torsions:
  status: ('A' for Active; 'I' for Inactive)
    1  A    between atoms: N_1  and  CA_2
    2  A    between atoms: CA_2  and  C_3
    3  A    between atoms: CA_2  and  C_6
    4  A    between atoms: C_3  and  OXT_5
    5  A    between atoms: C_6  and  C_7
    6  A    between atoms: C_8  and  O_11
    7  A    between atoms: C_9  and  C_10
                            x       y       z     vdW  Elec       q    Type
                         _______ _______ _______ _____ _____    ______ ____

>  <TORSDO>
F 6

$$$$
