AMQ
 OpenBabel09132604103D

 17 17  0  0  1  0  0  0  0  0999 V2000
   -2.2500   47.1180    8.7880 C   0  0  0  0  0  2  0  0  0  0  0  0
   -1.3120   47.5800    7.7060 C   0  0  0  0  0  0  0  0  0  0  0  0
   -1.0130   46.9680    6.5050 C   0  0  0  0  0  0  0  0  0  0  0  0
   -0.4900   48.6920    7.7100 C   0  0  0  0  0  0  0  0  0  0  0  0
   -0.3820   49.7250    8.7830 C   0  0  0  0  0  1  0  0  0  0  0  0
   -0.0850   47.6830    5.8430 N   0  0  0  0  0  0  0  0  0  0  0  0
    0.2040   48.7080    6.5940 O   0  0  0  0  0  0  0  0  0  0  0  0
   -1.5580   45.7840    6.0160 O   0  0  0  0  0  0  0  0  0  0  0  0
   -1.6020   45.5920    5.0230 H   0  0  0  0  0  0  0  0  0  0  0  0
   -1.8460   45.7430    9.3510 C   0  0  2  0  0  3  0  0  0  0  0  0
   -2.8120   44.7150    8.9540 N   0  0  0  0  0  0  0  0  0  0  0  0
   -2.7980   44.6310    7.9130 H   0  0  0  0  0  0  0  0  0  0  0  0
   -2.4770   43.7910    9.3110 H   0  0  0  0  0  0  0  0  0  0  0  0
   -1.7800   45.8210   10.8500 C   0  0  0  0  0  0  0  0  0  0  0  0
   -1.9560   46.9250   11.4330 O   0  0  0  0  0  0  0  0  0  0  0  0
   -1.5540   44.6700   11.5980 O   0  0  0  0  0  0  0  0  0  0  0  0
   -0.6120   44.3810   11.8360 H   0  0  0  0  0  0  0  0  0  0  0  0
  2  4  2  0  0  0  0
  2  1  1  0  0  0  0
  3  2  1  0  0  0  0
  4  5  1  0  0  0  0
  6  3  2  0  0  0  0
  6  7  1  0  0  0  0
  7  4  1  0  0  0  0
  8  3  1  0  0  0  0
  9  8  1  0  0  0  0
 10  1  1  6  0  0  0
 10 14  1  0  0  0  0
 11 13  1  0  0  0  0
 11 10  1  0  0  0  0
 12 11  1  0  0  0  0
 14 15  2  0  0  0  0
 14 16  1  0  0  0  0
 16 17  1  0  0  0  0
M  END
>  <MODEL>
16

>  <REMARK>
 VINA RESULT:    -5.001      2.906      3.707
 INTER + INTRA:          -6.784
 INTER:                  -6.489
 INTRA:                  -0.294
 UNBOUND:                -0.467
  Name = AMQ
  7 active torsions:
  status: ('A' for Active; 'I' for Inactive)
    1  A    between atoms: N_1  and  CA_2
    2  A    between atoms: CA_2  and  C_3
    3  A    between atoms: CA_2  and  C_6
    4  A    between atoms: C_3  and  OXT_5
    5  A    between atoms: C_6  and  C_7
    6  A    between atoms: C_8  and  O_11
    7  A    between atoms: C_9  and  C_10
                            x       y       z     vdW  Elec       q    Type
                         _______ _______ _______ _____ _____    ______ ____

>  <TORSDO>
F 6

$$$$
