AMQ
 OpenBabel09132604103D

 17 17  0  0  1  0  0  0  0  0999 V2000
   -1.3810   47.2410   10.8490 C   0  0  0  0  0  2  0  0  0  0  0  0
   -0.9130   46.7640    9.5010 C   0  0  0  0  0  0  0  0  0  0  0  0
   -0.1070   45.6840    9.2010 C   0  0  0  0  0  0  0  0  0  0  0  0
   -1.1350   47.3480    8.2670 C   0  0  0  0  0  0  0  0  0  0  0  0
   -1.9410   48.5740    7.9860 C   0  0  0  0  0  1  0  0  0  0  0  0
    0.1170   45.6320    7.8750 N   0  0  0  0  0  0  0  0  0  0  0  0
   -0.5140   46.6420    7.3490 O   0  0  0  0  0  0  0  0  0  0  0  0
    0.4240   44.7660   10.1030 O   0  0  0  0  0  0  0  0  0  0  0  0
    0.0300   44.6440   11.0280 H   0  0  0  0  0  0  0  0  0  0  0  0
   -2.6710   46.5270   11.2960 C   0  0  2  0  0  3  0  0  0  0  0  0
   -3.5230   47.4310   12.0710 N   0  0  0  0  0  0  0  0  0  0  0  0
   -4.3940   47.6170   11.5240 H   0  0  0  0  0  0  0  0  0  0  0  0
   -3.8390   46.9310   12.9330 H   0  0  0  0  0  0  0  0  0  0  0  0
   -2.3110   45.3320   12.1320 C   0  0  0  0  0  0  0  0  0  0  0  0
   -2.1740   44.2010   11.5920 O   0  0  0  0  0  0  0  0  0  0  0  0
   -2.0990   45.4780   13.5000 O   0  0  0  0  0  0  0  0  0  0  0  0
   -2.5720   44.8780   14.1650 H   0  0  0  0  0  0  0  0  0  0  0  0
  2  1  1  0  0  0  0
  3  2  1  0  0  0  0
  3  8  1  0  0  0  0
  4  2  2  0  0  0  0
  5  4  1  0  0  0  0
  6  3  2  0  0  0  0
  7  6  1  0  0  0  0
  7  4  1  0  0  0  0
  8  9  1  0  0  0  0
 10  1  1  1  0  0  0
 10 11  1  0  0  0  0
 10 14  1  0  0  0  0
 11 13  1  0  0  0  0
 12 11  1  0  0  0  0
 14 16  1  0  0  0  0
 15 14  2  0  0  0  0
 16 17  1  0  0  0  0
M  END
>  <MODEL>
12

>  <REMARK>
 VINA RESULT:    -5.090      3.692      4.172
 INTER + INTRA:          -6.896
 INTER:                  -6.436
 INTRA:                  -0.460
 UNBOUND:                -0.467
  Name = AMQ
  7 active torsions:
  status: ('A' for Active; 'I' for Inactive)
    1  A    between atoms: N_1  and  CA_2
    2  A    between atoms: CA_2  and  C_3
    3  A    between atoms: CA_2  and  C_6
    4  A    between atoms: C_3  and  OXT_5
    5  A    between atoms: C_6  and  C_7
    6  A    between atoms: C_8  and  O_11
    7  A    between atoms: C_9  and  C_10
                            x       y       z     vdW  Elec       q    Type
                         _______ _______ _______ _____ _____    ______ ____

>  <TORSDO>
F 6

$$$$
