AMQ
 OpenBabel09132604103D

 17 17  0  0  1  0  0  0  0  0999 V2000
   -0.5970   49.8630   12.2340 C   0  0  0  0  0  2  0  0  0  0  0  0
   -1.8230   49.0920   12.6430 C   0  0  0  0  0  0  0  0  0  0  0  0
   -2.1560   48.6020   13.8910 C   0  0  0  0  0  0  0  0  0  0  0  0
   -2.8560   48.6460   11.8390 C   0  0  0  0  0  0  0  0  0  0  0  0
   -3.0140   48.8740   10.3720 C   0  0  0  0  0  1  0  0  0  0  0  0
   -3.3170   47.9240   13.8230 N   0  0  0  0  0  0  0  0  0  0  0  0
   -3.7060   47.9720   12.5810 O   0  0  0  0  0  0  0  0  0  0  0  0
   -1.4270   48.7550   15.0660 O   0  0  0  0  0  0  0  0  0  0  0  0
   -1.8600   49.0900   15.9180 H   0  0  0  0  0  0  0  0  0  0  0  0
   -0.6900   51.3470   12.6370 C   0  0  2  0  0  3  0  0  0  0  0  0
   -1.6340   52.0620   11.7750 N   0  0  0  0  0  0  0  0  0  0  0  0
   -1.1650   52.2600   10.8620 H   0  0  0  0  0  0  0  0  0  0  0  0
   -2.4260   51.4180   11.5450 H   0  0  0  0  0  0  0  0  0  0  0  0
    0.6700   51.9760   12.5270 C   0  0  0  0  0  0  0  0  0  0  0  0
    1.5510   51.7320   13.3950 O   0  0  0  0  0  0  0  0  0  0  0  0
    0.9690   52.8040   11.4490 O   0  0  0  0  0  0  0  0  0  0  0  0
    1.5530   52.4770   10.6890 H   0  0  0  0  0  0  0  0  0  0  0  0
  1  2  1  0  0  0  0
  2  3  1  0  0  0  0
  3  8  1  0  0  0  0
  4  7  1  0  0  0  0
  4  2  2  0  0  0  0
  5  4  1  0  0  0  0
  6  3  2  0  0  0  0
  7  6  1  0  0  0  0
  8  9  1  0  0  0  0
 10  1  1  6  0  0  0
 11 10  1  0  0  0  0
 12 11  1  0  0  0  0
 13 11  1  0  0  0  0
 14 10  1  0  0  0  0
 14 15  2  0  0  0  0
 16 14  1  0  0  0  0
 17 16  1  0  0  0  0
M  END
>  <MODEL>
11

>  <REMARK>
 VINA RESULT:    -5.098      4.171      5.287
 INTER + INTRA:          -6.906
 INTER:                  -6.661
 INTRA:                  -0.245
 UNBOUND:                -0.467
  Name = AMQ
  7 active torsions:
  status: ('A' for Active; 'I' for Inactive)
    1  A    between atoms: N_1  and  CA_2
    2  A    between atoms: CA_2  and  C_3
    3  A    between atoms: CA_2  and  C_6
    4  A    between atoms: C_3  and  OXT_5
    5  A    between atoms: C_6  and  C_7
    6  A    between atoms: C_8  and  O_11
    7  A    between atoms: C_9  and  C_10
                            x       y       z     vdW  Elec       q    Type
                         _______ _______ _______ _____ _____    ______ ____

>  <TORSDO>
F 6

$$$$
