AMQ
 OpenBabel09132604103D

 17 17  0  0  1  0  0  0  0  0999 V2000
   -2.5590   48.2410   11.5030 C   0  0  0  0  0  2  0  0  0  0  0  0
   -2.3060   46.8100   11.8940 C   0  0  0  0  0  0  0  0  0  0  0  0
   -1.7610   45.7930   11.1360 C   0  0  0  0  0  0  0  0  0  0  0  0
   -2.6280   46.1840   13.0840 C   0  0  0  0  0  0  0  0  0  0  0  0
   -3.2640   46.8060   14.2830 C   0  0  0  0  0  1  0  0  0  0  0  0
   -1.7530   44.6470   11.8420 N   0  0  0  0  0  0  0  0  0  0  0  0
   -2.2780   44.9190   13.0020 O   0  0  0  0  0  0  0  0  0  0  0  0
   -1.2870   45.8900    9.8310 O   0  0  0  0  0  0  0  0  0  0  0  0
   -0.7450   45.1470    9.4070 H   0  0  0  0  0  0  0  0  0  0  0  0
   -1.5080   49.1950   12.0990 C   0  0  2  0  0  3  0  0  0  0  0  0
   -2.1360   50.4330   12.5670 N   0  0  0  0  0  0  0  0  0  0  0  0
   -2.5590   50.9210   11.7460 H   0  0  0  0  0  0  0  0  0  0  0  0
   -2.9410   50.1820   13.1860 H   0  0  0  0  0  0  0  0  0  0  0  0
   -0.4800   49.5160   11.0520 C   0  0  0  0  0  0  0  0  0  0  0  0
    0.3890   50.4030   11.2700 O   0  0  0  0  0  0  0  0  0  0  0  0
   -0.4660   48.8130    9.8500 O   0  0  0  0  0  0  0  0  0  0  0  0
    0.2910   48.9310    9.1880 H   0  0  0  0  0  0  0  0  0  0  0  0
  1  2  1  0  0  0  0
  2  4  2  0  0  0  0
  3  6  2  0  0  0  0
  3  2  1  0  0  0  0
  4  5  1  0  0  0  0
  6  7  1  0  0  0  0
  7  4  1  0  0  0  0
  8  3  1  0  0  0  0
  9  8  1  0  0  0  0
 10  1  1  6  0  0  0
 10 11  1  0  0  0  0
 11 13  1  0  0  0  0
 12 11  1  0  0  0  0
 14 15  2  0  0  0  0
 14 10  1  0  0  0  0
 16 14  1  0  0  0  0
 17 16  1  0  0  0  0
M  END
>  <MODEL>
20

>  <REMARK>
 VINA RESULT:    -4.839      3.587      4.767
 INTER + INTRA:          -6.579
 INTER:                  -6.130
 INTRA:                  -0.448
 UNBOUND:                -0.467
  Name = AMQ
  7 active torsions:
  status: ('A' for Active; 'I' for Inactive)
    1  A    between atoms: N_1  and  CA_2
    2  A    between atoms: CA_2  and  C_3
    3  A    between atoms: CA_2  and  C_6
    4  A    between atoms: C_3  and  OXT_5
    5  A    between atoms: C_6  and  C_7
    6  A    between atoms: C_8  and  O_11
    7  A    between atoms: C_9  and  C_10
                            x       y       z     vdW  Elec       q    Type
                         _______ _______ _______ _____ _____    ______ ____

>  <TORSDO>
F 6

$$$$
