AMQ
 OpenBabel09132604103D

 17 17  0  0  1  0  0  0  0  0999 V2000
   -3.0110   47.2840   12.5370 C   0  0  0  0  0  2  0  0  0  0  0  0
   -2.1280   48.5000   12.6260 C   0  0  0  0  0  0  0  0  0  0  0  0
   -1.9650   49.3700   13.6860 C   0  0  0  0  0  0  0  0  0  0  0  0
   -1.3350   49.0500   11.6360 C   0  0  0  0  0  0  0  0  0  0  0  0
   -1.1360   48.5280   10.2510 C   0  0  0  0  0  1  0  0  0  0  0  0
   -1.1190   50.3590   13.3410 N   0  0  0  0  0  0  0  0  0  0  0  0
   -0.7630   50.1340   12.1090 O   0  0  0  0  0  0  0  0  0  0  0  0
   -2.5690   49.2820   14.9360 O   0  0  0  0  0  0  0  0  0  0  0  0
   -3.4540   49.7350   15.1300 H   0  0  0  0  0  0  0  0  0  0  0  0
   -2.5560   46.1710   13.4980 C   0  0  2  0  0  3  0  0  0  0  0  0
   -2.2100   44.9550   12.7580 N   0  0  0  0  0  0  0  0  0  0  0  0
   -3.0930   44.4560   12.5090 H   0  0  0  0  0  0  0  0  0  0  0  0
   -1.7820   45.2330   11.8460 H   0  0  0  0  0  0  0  0  0  0  0  0
   -3.6620   45.8720   14.4700 C   0  0  0  0  0  0  0  0  0  0  0  0
   -4.4240   46.7970   14.8630 O   0  0  0  0  0  0  0  0  0  0  0  0
   -3.8660   44.5690   14.9140 O   0  0  0  0  0  0  0  0  0  0  0  0
   -4.8010   44.1900   14.9980 H   0  0  0  0  0  0  0  0  0  0  0  0
  1  2  1  0  0  0  0
  2  3  1  0  0  0  0
  3  8  1  0  0  0  0
  4  7  1  0  0  0  0
  4  2  2  0  0  0  0
  5  4  1  0  0  0  0
  6  3  2  0  0  0  0
  7  6  1  0  0  0  0
  8  9  1  0  0  0  0
 10  1  1  6  0  0  0
 10 14  1  0  0  0  0
 11 10  1  0  0  0  0
 12 11  1  0  0  0  0
 13 11  1  0  0  0  0
 14 15  2  0  0  0  0
 14 16  1  0  0  0  0
 16 17  1  0  0  0  0
M  END
>  <MODEL>
3

>  <REMARK>
 VINA RESULT:    -5.476      4.409      6.473
 INTER + INTRA:          -7.383
 INTER:                  -6.929
 INTRA:                  -0.454
 UNBOUND:                -0.467
  Name = AMQ
  7 active torsions:
  status: ('A' for Active; 'I' for Inactive)
    1  A    between atoms: N_1  and  CA_2
    2  A    between atoms: CA_2  and  C_3
    3  A    between atoms: CA_2  and  C_6
    4  A    between atoms: C_3  and  OXT_5
    5  A    between atoms: C_6  and  C_7
    6  A    between atoms: C_8  and  O_11
    7  A    between atoms: C_9  and  C_10
                            x       y       z     vdW  Elec       q    Type
                         _______ _______ _______ _____ _____    ______ ____

>  <TORSDO>
F 6

$$$$
