AMQ
 OpenBabel09132604103D

 17 17  0  0  1  0  0  0  0  0999 V2000
   -2.2350   47.2930   10.9110 C   0  0  0  0  0  2  0  0  0  0  0  0
   -1.1500   48.3340   10.8440 C   0  0  0  0  0  0  0  0  0  0  0  0
   -0.1770   48.5030    9.8790 C   0  0  0  0  0  0  0  0  0  0  0  0
   -0.8490   49.3110   11.7750 C   0  0  0  0  0  0  0  0  0  0  0  0
   -1.5730   49.5890   13.0510 C   0  0  0  0  0  1  0  0  0  0  0  0
    0.6340   49.5220   10.2180 N   0  0  0  0  0  0  0  0  0  0  0  0
    0.2010   49.9820   11.3570 O   0  0  0  0  0  0  0  0  0  0  0  0
   -0.0150   47.7500    8.7200 O   0  0  0  0  0  0  0  0  0  0  0  0
    0.5160   48.0990    7.9310 H   0  0  0  0  0  0  0  0  0  0  0  0
   -1.6740   45.8670   10.7700 C   0  0  2  0  0  3  0  0  0  0  0  0
   -1.9770   45.3170    9.4470 N   0  0  0  0  0  0  0  0  0  0  0  0
   -1.0900   44.9610    9.0240 H   0  0  0  0  0  0  0  0  0  0  0  0
   -2.5830   44.4730    9.5700 H   0  0  0  0  0  0  0  0  0  0  0  0
   -2.2780   44.9900   11.8310 C   0  0  0  0  0  0  0  0  0  0  0  0
   -2.1460   45.2900   13.0490 O   0  0  0  0  0  0  0  0  0  0  0  0
   -3.0090   43.8620   11.4700 O   0  0  0  0  0  0  0  0  0  0  0  0
   -4.0140   43.8350   11.5890 H   0  0  0  0  0  0  0  0  0  0  0  0
  2  1  1  0  0  0  0
  2  4  2  0  0  0  0
  3  6  2  0  0  0  0
  3  2  1  0  0  0  0
  4  5  1  0  0  0  0
  6  7  1  0  0  0  0
  7  4  1  0  0  0  0
  8  3  1  0  0  0  0
  9  8  1  0  0  0  0
 10  1  1  6  0  0  0
 10 14  1  0  0  0  0
 11 13  1  0  0  0  0
 11 10  1  0  0  0  0
 12 11  1  0  0  0  0
 14 15  2  0  0  0  0
 16 17  1  0  0  0  0
 16 14  1  0  0  0  0
M  END
>  <MODEL>
14

>  <REMARK>
 VINA RESULT:    -5.049      3.472      5.020
 INTER + INTRA:          -6.844
 INTER:                  -6.555
 INTRA:                  -0.289
 UNBOUND:                -0.467
  Name = AMQ
  7 active torsions:
  status: ('A' for Active; 'I' for Inactive)
    1  A    between atoms: N_1  and  CA_2
    2  A    between atoms: CA_2  and  C_3
    3  A    between atoms: CA_2  and  C_6
    4  A    between atoms: C_3  and  OXT_5
    5  A    between atoms: C_6  and  C_7
    6  A    between atoms: C_8  and  O_11
    7  A    between atoms: C_9  and  C_10
                            x       y       z     vdW  Elec       q    Type
                         _______ _______ _______ _____ _____    ______ ____

>  <TORSDO>
F 6

$$$$
