AMQ
 OpenBabel09132604103D

 17 17  0  0  1  0  0  0  0  0999 V2000
   -2.5030   46.1810   10.6010 C   0  0  0  0  0  2  0  0  0  0  0  0
   -1.2390   46.8790   10.1780 C   0  0  0  0  0  0  0  0  0  0  0  0
   -0.1270   46.3470    9.5560 C   0  0  0  0  0  0  0  0  0  0  0  0
   -0.8870   48.2010   10.3840 C   0  0  0  0  0  0  0  0  0  0  0  0
   -1.7130   49.2590   11.0380 C   0  0  0  0  0  1  0  0  0  0  0  0
    0.8100   47.2990    9.3960 N   0  0  0  0  0  0  0  0  0  0  0  0
    0.3200   48.3950    9.9020 O   0  0  0  0  0  0  0  0  0  0  0  0
    0.0450   45.0280    9.1460 O   0  0  0  0  0  0  0  0  0  0  0  0
    0.1990   44.2820    9.8130 H   0  0  0  0  0  0  0  0  0  0  0  0
   -2.2420   45.1330   11.6990 C   0  0  2  0  0  3  0  0  0  0  0  0
   -3.0840   43.9510   11.4990 N   0  0  0  0  0  0  0  0  0  0  0  0
   -3.3370   43.8900   10.4870 H   0  0  0  0  0  0  0  0  0  0  0  0
   -2.5090   43.0990   11.6930 H   0  0  0  0  0  0  0  0  0  0  0  0
   -2.5350   45.7400   13.0420 C   0  0  0  0  0  0  0  0  0  0  0  0
   -1.9800   45.2810   14.0770 O   0  0  0  0  0  0  0  0  0  0  0  0
   -3.3960   46.8290   13.1410 O   0  0  0  0  0  0  0  0  0  0  0  0
   -4.3990   46.6960   13.1890 H   0  0  0  0  0  0  0  0  0  0  0  0
  2  4  2  0  0  0  0
  2  1  1  0  0  0  0
  3  2  1  0  0  0  0
  4  5  1  0  0  0  0
  6  3  2  0  0  0  0
  6  7  1  0  0  0  0
  7  4  1  0  0  0  0
  8  3  1  0  0  0  0
  8  9  1  0  0  0  0
 10  1  1  6  0  0  0
 10 14  1  0  0  0  0
 11 13  1  0  0  0  0
 11 10  1  0  0  0  0
 12 11  1  0  0  0  0
 14 16  1  0  0  0  0
 14 15  2  0  0  0  0
 16 17  1  0  0  0  0
M  END
>  <MODEL>
15

>  <REMARK>
 VINA RESULT:    -5.022      3.853      4.727
 INTER + INTRA:          -6.810
 INTER:                  -6.522
 INTRA:                  -0.288
 UNBOUND:                -0.467
  Name = AMQ
  7 active torsions:
  status: ('A' for Active; 'I' for Inactive)
    1  A    between atoms: N_1  and  CA_2
    2  A    between atoms: CA_2  and  C_3
    3  A    between atoms: CA_2  and  C_6
    4  A    between atoms: C_3  and  OXT_5
    5  A    between atoms: C_6  and  C_7
    6  A    between atoms: C_8  and  O_11
    7  A    between atoms: C_9  and  C_10
                            x       y       z     vdW  Elec       q    Type
                         _______ _______ _______ _____ _____    ______ ____

>  <TORSDO>
F 6

$$$$
