UDP
 OpenBabel09132604103D

 31 32  0  0  1  0  0  0  0  0999 V2000
   58.1440   18.6000   -7.4650 C   0  0  1  0  0  3  0  0  0  0  0  0
   57.9010   17.0920   -7.2800 C   0  0  1  0  0  3  0  0  0  0  0  0
   56.4790   17.0180   -6.7550 C   0  0  1  0  0  3  0  0  0  0  0  0
   55.9140   18.3830   -7.1280 C   0  0  2  0  0  3  0  0  0  0  0  0
   56.9750   19.3080   -7.1060 O   0  0  0  0  0  0  0  0  0  0  0  0
   59.2910   19.0570   -6.6520 N   0  0  0  0  0  0  0  0  0  0  0  0
   60.5470   19.2110   -7.1920 C   0  0  0  0  0  0  0  0  0  0  0  0
   61.5780   19.6530   -6.4190 N   0  0  0  0  0  0  0  0  0  0  0  0
   61.3910   19.9650   -5.1100 C   0  0  0  0  0  0  0  0  0  0  0  0
   60.1280   19.8360   -4.5420 C   0  0  0  0  0  3  0  0  0  0  0  0
   59.0810   19.3820   -5.3400 C   0  0  0  0  0  3  0  0  0  0  0  0
   60.7610   18.9510   -8.4080 O   0  0  0  0  0  0  0  0  0  0  0  0
   62.3580   20.3720   -4.4120 O   0  0  0  0  0  0  0  0  0  0  0  0
   62.5290   19.7600   -6.8400 H   0  0  0  0  0  0  0  0  0  0  0  0
   58.0690   16.3920   -8.4920 O   0  0  0  0  0  0  0  0  0  0  0  0
   58.7900   15.7210   -8.3650 H   0  0  0  0  0  0  0  0  0  0  0  0
   55.7320   15.9870   -7.3490 O   0  0  0  0  0  0  0  0  0  0  0  0
   56.2770   15.6490   -8.1070 H   0  0  0  0  0  0  0  0  0  0  0  0
   54.8110   18.8280   -6.1640 C   0  0  0  0  0  2  0  0  0  0  0  0
   54.2330   20.0180   -6.6470 O   0  0  0  0  0  0  0  0  0  0  0  0
   52.9620   19.6020   -7.7030 P   0  0  1  0  0  0  0  0  0  0  0  0
   51.7260   20.3680   -7.2830 O   0  0  0  0  0  0  0  0  0  0  0  0
   53.3790   20.0440   -9.2860 O   0  0  0  0  0  0  0  0  0  0  0  0
   53.2060   21.0180   -9.3310 H   0  0  0  0  0  0  0  0  0  0  0  0
   52.6630   17.9300   -7.5830 O   0  0  0  0  0  0  0  0  0  0  0  0
   51.2450   17.5920   -8.4610 P   0  0  0  0  0  0  0  0  0  0  0  0
   50.1030   17.4240   -7.4860 O   0  0  0  0  0  0  0  0  0  0  0  0
   50.8750   18.8540   -9.5270 O   0  0  0  0  0  0  0  0  0  0  0  0
   49.9240   19.0670   -9.3470 H   0  0  0  0  0  0  0  0  0  0  0  0
   51.4340   16.1510   -9.3300 O   0  0  0  0  0  0  0  0  0  0  0  0
   51.2900   16.4060  -10.2750 H   0  0  0  0  0  0  0  0  0  0  0  0
  1  2  1  0  0  0  0
  1  5  1  0  0  0  0
  1  6  1  1  0  0  0
  2 15  1  6  0  0  0
  2  3  1  0  0  0  0
  3 17  1  6  0  0  0
  4  5  1  0  0  0  0
  4  3  1  0  0  0  0
  4 19  1  1  0  0  0
  6 11  1  0  0  0  0
  7  6  1  0  0  0  0
  7  8  1  0  0  0  0
  8  9  1  0  0  0  0
  9 10  1  0  0  0  0
  9 13  2  0  0  0  0
 11 10  2  0  0  0  0
 12  7  2  0  0  0  0
 14  8  1  0  0  0  0
 15 16  1  0  0  0  0
 18 17  1  0  0  0  0
 20 19  1  0  0  0  0
 21 25  1  0  0  0  0
 21 22  2  1  0  0  0
 21 20  1  0  0  0  0
 23 21  1  0  0  0  0
 24 23  1  0  0  0  0
 26 25  1  0  0  0  0
 26 27  2  0  0  0  0
 28 29  1  0  0  0  0
 28 26  1  0  0  0  0
 30 26  1  0  0  0  0
 31 30  1  0  0  0  0
M  END
>  <MODEL>
4

>  <REMARK>
 VINA RESULT:    -7.141      5.923      7.968
 INTER + INTRA:         -12.033
 INTER:                 -10.813
 INTRA:                  -1.220
 UNBOUND:                -1.343
  Name = UDP
  11 active torsions:
  status: ('A' for Active; 'I' for Inactive)
    1  A    between atoms: N_1  and  C_9
    2  A    between atoms: C_10  and  O_11
    3  A    between atoms: C_12  and  O_15
    4  A    between atoms: C_13  and  C_16
    5  A    between atoms: C_16  and  O_17
    6  A    between atoms: O_17  and  P_18
    7  A    between atoms: P_18  and  O_20
    8  A    between atoms: P_18  and  O_21
    9  A    between atoms: O_21  and  P_22
   10  A    between atoms: P_22  and  O_24
   11  A    between atoms: P_22  and  O_25
                            x       y       z     vdW  Elec       q    Type
                         _______ _______ _______ _____ _____    ______ ____

>  <TORSDO>
F 11

$$$$
