UDP
 OpenBabel09132604103D

 31 32  0  0  1  0  0  0  0  0999 V2000
   55.1860   25.6010   -0.0070 C   0  0  1  0  0  3  0  0  0  0  0  0
   55.8840   24.9050   -1.1890 C   0  0  1  0  0  3  0  0  0  0  0  0
   54.7790   24.7490   -2.2190 C   0  0  1  0  0  3  0  0  0  0  0  0
   53.7340   25.7490   -1.7400 C   0  0  2  0  0  3  0  0  0  0  0  0
   53.8330   25.8390   -0.3390 O   0  0  0  0  0  0  0  0  0  0  0  0
   55.2790   24.7840    1.2200 N   0  0  0  0  0  0  0  0  0  0  0  0
   56.2830   24.9700    2.1420 C   0  0  0  0  0  0  0  0  0  0  0  0
   56.3270   24.2120    3.2730 N   0  0  0  0  0  0  0  0  0  0  0  0
   55.3810   23.2710    3.5250 C   0  0  0  0  0  0  0  0  0  0  0  0
   54.3440   23.0730    2.6210 C   0  0  0  0  0  3  0  0  0  0  0  0
   54.3080   23.8510    1.4660 C   0  0  0  0  0  3  0  0  0  0  0  0
   57.1720   25.8460    1.9570 O   0  0  0  0  0  0  0  0  0  0  0  0
   55.4400   22.5800    4.5770 O   0  0  0  0  0  0  0  0  0  0  0  0
   57.1000   24.3600    3.9630 H   0  0  0  0  0  0  0  0  0  0  0  0
   56.9680   25.6680   -1.6690 O   0  0  0  0  0  0  0  0  0  0  0  0
   56.8800   25.7420   -2.6560 H   0  0  0  0  0  0  0  0  0  0  0  0
   55.2030   25.0520   -3.5230 O   0  0  0  0  0  0  0  0  0  0  0  0
   56.0240   24.5150   -3.6810 H   0  0  0  0  0  0  0  0  0  0  0  0
   52.3160   25.3310   -2.1390 C   0  0  0  0  0  2  0  0  0  0  0  0
   51.4040   25.8460   -1.1990 O   0  0  0  0  0  0  0  0  0  0  0  0
   50.4410   24.5600   -0.6310 P   0  0  1  0  0  0  0  0  0  0  0  0
   49.3520   24.2980   -1.6480 O   0  0  0  0  0  0  0  0  0  0  0  0
   51.3990   23.1710   -0.4680 O   0  0  0  0  0  0  0  0  0  0  0  0
   51.1470   22.7920    0.4120 H   0  0  0  0  0  0  0  0  0  0  0  0
   49.7360   25.0070    0.8540 O   0  0  0  0  0  0  0  0  0  0  0  0
   49.3120   26.6520    0.7540 P   0  0  0  0  0  0  0  0  0  0  0  0
   48.4410   26.9990    1.9390 O   0  0  0  0  0  0  0  0  0  0  0  0
   50.6900   27.6370    0.7790 O   0  0  0  0  0  0  0  0  0  0  0  0
   51.3550   27.1290    1.3100 H   0  0  0  0  0  0  0  0  0  0  0  0
   48.4360   26.9370   -0.6670 O   0  0  0  0  0  0  0  0  0  0  0  0
   47.6560   27.4740   -0.3790 H   0  0  0  0  0  0  0  0  0  0  0  0
  1  6  1  1  0  0  0
  2 15  1  6  0  0  0
  2  1  1  0  0  0  0
  3 17  1  6  0  0  0
  3  4  1  0  0  0  0
  3  2  1  0  0  0  0
  4 19  1  1  0  0  0
  4  5  1  0  0  0  0
  5  1  1  0  0  0  0
  6 11  1  0  0  0  0
  6  7  1  0  0  0  0
  7  8  1  0  0  0  0
  8  9  1  0  0  0  0
  8 14  1  0  0  0  0
  9 13  2  0  0  0  0
 10  9  1  0  0  0  0
 11 10  2  0  0  0  0
 12  7  2  0  0  0  0
 16 15  1  0  0  0  0
 18 17  1  0  0  0  0
 19 20  1  0  0  0  0
 20 21  1  0  0  0  0
 21 22  2  6  0  0  0
 21 23  1  0  0  0  0
 21 25  1  0  0  0  0
 23 24  1  0  0  0  0
 26 28  1  0  0  0  0
 26 25  1  0  0  0  0
 26 27  2  0  0  0  0
 28 29  1  0  0  0  0
 30 31  1  0  0  0  0
 30 26  1  0  0  0  0
M  END
>  <MODEL>
19

>  <REMARK>
 VINA RESULT:    -6.572      6.816      8.839
 INTER + INTRA:         -11.181
 INTER:                  -9.580
 INTRA:                  -1.601
 UNBOUND:                -1.343
  Name = UDP
  11 active torsions:
  status: ('A' for Active; 'I' for Inactive)
    1  A    between atoms: N_1  and  C_9
    2  A    between atoms: C_10  and  O_11
    3  A    between atoms: C_12  and  O_15
    4  A    between atoms: C_13  and  C_16
    5  A    between atoms: C_16  and  O_17
    6  A    between atoms: O_17  and  P_18
    7  A    between atoms: P_18  and  O_20
    8  A    between atoms: P_18  and  O_21
    9  A    between atoms: O_21  and  P_22
   10  A    between atoms: P_22  and  O_24
   11  A    between atoms: P_22  and  O_25
                            x       y       z     vdW  Elec       q    Type
                         _______ _______ _______ _____ _____    ______ ____

>  <TORSDO>
F 11

$$$$
