UDP
 OpenBabel09132604103D

 31 32  0  0  1  0  0  0  0  0999 V2000
   56.7890   16.9710   -4.2270 C   0  0  1  0  0  3  0  0  0  0  0  0
   55.5170   16.9290   -5.0930 C   0  0  1  0  0  3  0  0  0  0  0  0
   56.0400   17.0960   -6.5080 C   0  0  1  0  0  3  0  0  0  0  0  0
   57.5170   16.7520   -6.3620 C   0  0  2  0  0  3  0  0  0  0  0  0
   57.9180   17.1200   -5.0640 O   0  0  0  0  0  0  0  0  0  0  0  0
   56.7280   18.0730   -3.2450 N   0  0  0  0  0  0  0  0  0  0  0  0
   56.4920   17.8420   -1.9090 C   0  0  0  0  0  0  0  0  0  0  0  0
   56.4610   18.8790   -1.0270 N   0  0  0  0  0  0  0  0  0  0  0  0
   56.6750   20.1570   -1.4370 C   0  0  0  0  0  0  0  0  0  0  0  0
   56.9330   20.4180   -2.7780 C   0  0  0  0  0  3  0  0  0  0  0  0
   56.9610   19.3510   -3.6730 C   0  0  0  0  0  3  0  0  0  0  0  0
   56.3070   16.6690   -1.4820 O   0  0  0  0  0  0  0  0  0  0  0  0
   56.6420   21.1020   -0.6050 O   0  0  0  0  0  0  0  0  0  0  0  0
   56.2750   18.6900   -0.0150 H   0  0  0  0  0  0  0  0  0  0  0  0
   54.8130   15.7210   -4.9150 O   0  0  0  0  0  0  0  0  0  0  0  0
   53.8900   15.9420   -4.6210 H   0  0  0  0  0  0  0  0  0  0  0  0
   55.4130   16.2370   -7.4260 O   0  0  0  0  0  0  0  0  0  0  0  0
   54.6050   16.7150   -7.7480 H   0  0  0  0  0  0  0  0  0  0  0  0
   58.3790   17.4730   -7.4010 C   0  0  0  0  0  2  0  0  0  0  0  0
   58.9940   18.5860   -6.7950 O   0  0  0  0  0  0  0  0  0  0  0  0
   60.6310   18.6110   -7.2650 P   0  0  1  0  0  0  0  0  0  0  0  0
   61.2520   17.2820   -6.8950 O   0  0  0  0  0  0  0  0  0  0  0  0
   60.7300   18.8230   -8.9450 O   0  0  0  0  0  0  0  0  0  0  0  0
   61.6300   18.4900   -9.1900 H   0  0  0  0  0  0  0  0  0  0  0  0
   61.4310   19.8630   -6.4330 O   0  0  0  0  0  0  0  0  0  0  0  0
   61.1110   19.6690   -4.7730 P   0  0  0  0  0  0  0  0  0  0  0  0
   60.1170   20.7250   -4.3460 O   0  0  0  0  0  0  0  0  0  0  0  0
   60.4570   18.1400   -4.4540 O   0  0  0  0  0  0  0  0  0  0  0  0
   60.4230   17.6900   -5.3370 H   0  0  0  0  0  0  0  0  0  0  0  0
   62.5370   19.8730   -3.8830 O   0  0  0  0  0  0  0  0  0  0  0  0
   62.3230   19.5280   -2.9800 H   0  0  0  0  0  0  0  0  0  0  0  0
  1  6  1  1  0  0  0
  2 15  1  6  0  0  0
  2  1  1  0  0  0  0
  3 17  1  6  0  0  0
  3  4  1  0  0  0  0
  3  2  1  0  0  0  0
  4 19  1  6  0  0  0
  4  5  1  0  0  0  0
  5  1  1  0  0  0  0
  6  7  1  0  0  0  0
  7 12  2  0  0  0  0
  7  8  1  0  0  0  0
  8 14  1  0  0  0  0
  9  8  1  0  0  0  0
  9 13  2  0  0  0  0
 10  9  1  0  0  0  0
 11  6  1  0  0  0  0
 11 10  2  0  0  0  0
 15 16  1  0  0  0  0
 18 17  1  0  0  0  0
 19 20  1  0  0  0  0
 21 22  2  1  0  0  0
 21 20  1  0  0  0  0
 21 25  1  0  0  0  0
 23 21  1  0  0  0  0
 24 23  1  0  0  0  0
 25 26  1  0  0  0  0
 26 28  1  0  0  0  0
 26 27  2  0  0  0  0
 26 30  1  0  0  0  0
 29 28  1  0  0  0  0
 30 31  1  0  0  0  0
M  END
>  <MODEL>
13

>  <REMARK>
 VINA RESULT:    -6.755      3.989      7.311
 INTER + INTRA:         -11.455
 INTER:                  -9.593
 INTRA:                  -1.862
 UNBOUND:                -1.343
  Name = UDP
  11 active torsions:
  status: ('A' for Active; 'I' for Inactive)
    1  A    between atoms: N_1  and  C_9
    2  A    between atoms: C_10  and  O_11
    3  A    between atoms: C_12  and  O_15
    4  A    between atoms: C_13  and  C_16
    5  A    between atoms: C_16  and  O_17
    6  A    between atoms: O_17  and  P_18
    7  A    between atoms: P_18  and  O_20
    8  A    between atoms: P_18  and  O_21
    9  A    between atoms: O_21  and  P_22
   10  A    between atoms: P_22  and  O_24
   11  A    between atoms: P_22  and  O_25
                            x       y       z     vdW  Elec       q    Type
                         _______ _______ _______ _____ _____    ______ ____

>  <TORSDO>
F 11

$$$$
