UDP
 OpenBabel09132604103D

 31 32  0  0  1  0  0  0  0  0999 V2000
   58.2130   19.0280   -3.7290 C   0  0  1  0  0  3  0  0  0  0  0  0
   58.3370   18.7110   -2.2280 C   0  0  1  0  0  3  0  0  0  0  0  0
   58.1720   20.0640   -1.5600 C   0  0  1  0  0  3  0  0  0  0  0  0
   57.5250   20.9010   -2.6560 C   0  0  2  0  0  3  0  0  0  0  0  0
   57.9770   20.4110   -3.8960 O   0  0  0  0  0  0  0  0  0  0  0  0
   59.4310   18.6220   -4.4600 N   0  0  0  0  0  0  0  0  0  0  0  0
   59.4930   17.4460   -5.1710 C   0  0  0  0  0  0  0  0  0  0  0  0
   60.6260   17.1120   -5.8500 N   0  0  0  0  0  0  0  0  0  0  0  0
   61.7100   17.9310   -5.8550 C   0  0  0  0  0  0  0  0  0  0  0  0
   61.6690   19.1340   -5.1590 C   0  0  0  0  0  3  0  0  0  0  0  0
   60.5080   19.4670   -4.4670 C   0  0  0  0  0  3  0  0  0  0  0  0
   58.5030   16.6650   -5.2100 O   0  0  0  0  0  0  0  0  0  0  0  0
   62.7480   17.6030   -6.4890 O   0  0  0  0  0  0  0  0  0  0  0  0
   60.6610   16.2120   -6.3820 H   0  0  0  0  0  0  0  0  0  0  0  0
   57.3610   17.7810   -1.8160 O   0  0  0  0  0  0  0  0  0  0  0  0
   57.6890   17.3340   -0.9910 H   0  0  0  0  0  0  0  0  0  0  0  0
   57.3540   20.0130   -0.4190 O   0  0  0  0  0  0  0  0  0  0  0  0
   57.1880   19.0500   -0.2390 H   0  0  0  0  0  0  0  0  0  0  0  0
   57.8710   22.3860   -2.5220 C   0  0  0  0  0  2  0  0  0  0  0  0
   58.3100   22.6390   -1.2080 O   0  0  0  0  0  0  0  0  0  0  0  0
   57.8420   24.2230   -0.7870 P   0  0  1  0  0  0  0  0  0  0  0  0
   58.9730   24.8600   -0.0090 O   0  0  0  0  0  0  0  0  0  0  0  0
   57.5620   25.1200   -2.1980 O   0  0  0  0  0  0  0  0  0  0  0  0
   56.7120   25.6000   -2.0280 H   0  0  0  0  0  0  0  0  0  0  0  0
   56.4490   24.1500    0.1910 O   0  0  0  0  0  0  0  0  0  0  0  0
   56.0960   25.7320    0.7080 P   0  0  0  0  0  0  0  0  0  0  0  0
   56.3310   25.8160    2.1990 O   0  0  0  0  0  0  0  0  0  0  0  0
   57.0890   26.8620   -0.0690 O   0  0  0  0  0  0  0  0  0  0  0  0
   57.4990   27.3870    0.6660 H   0  0  0  0  0  0  0  0  0  0  0  0
   54.4710   26.0930    0.3940 O   0  0  0  0  0  0  0  0  0  0  0  0
   53.9700   25.3020    0.7160 H   0  0  0  0  0  0  0  0  0  0  0  0
  1  6  1  6  0  0  0
  1  2  1  0  0  0  0
  2 15  1  1  0  0  0
  2  3  1  0  0  0  0
  3 17  1  1  0  0  0
  4 19  1  1  0  0  0
  4  3  1  0  0  0  0
  5  1  1  0  0  0  0
  5  4  1  0  0  0  0
  7  6  1  0  0  0  0
  8  7  1  0  0  0  0
  9  8  1  0  0  0  0
  9 10  1  0  0  0  0
 10 11  2  0  0  0  0
 11  6  1  0  0  0  0
 12  7  2  0  0  0  0
 13  9  2  0  0  0  0
 14  8  1  0  0  0  0
 15 16  1  0  0  0  0
 17 18  1  0  0  0  0
 19 20  1  0  0  0  0
 20 21  1  0  0  0  0
 21 22  2  1  0  0  0
 21 25  1  0  0  0  0
 23 24  1  0  0  0  0
 23 21  1  0  0  0  0
 25 26  1  0  0  0  0
 26 27  2  0  0  0  0
 28 29  1  0  0  0  0
 28 26  1  0  0  0  0
 30 26  1  0  0  0  0
 30 31  1  0  0  0  0
M  END
>  <MODEL>
1

>  <REMARK>
 VINA RESULT:    -7.278      0.000      0.000
 INTER + INTRA:         -12.238
 INTER:                 -10.894
 INTRA:                  -1.343
 UNBOUND:                -1.343
  Name = UDP
  11 active torsions:
  status: ('A' for Active; 'I' for Inactive)
    1  A    between atoms: N_1  and  C_9
    2  A    between atoms: C_10  and  O_11
    3  A    between atoms: C_12  and  O_15
    4  A    between atoms: C_13  and  C_16
    5  A    between atoms: C_16  and  O_17
    6  A    between atoms: O_17  and  P_18
    7  A    between atoms: P_18  and  O_20
    8  A    between atoms: P_18  and  O_21
    9  A    between atoms: O_21  and  P_22
   10  A    between atoms: P_22  and  O_24
   11  A    between atoms: P_22  and  O_25
                            x       y       z     vdW  Elec       q    Type
                         _______ _______ _______ _____ _____    ______ ____

>  <TORSDO>
F 11

$$$$
