UDP
 OpenBabel09132604103D

 31 32  0  0  1  0  0  0  0  0999 V2000
   56.7330   24.8920    0.8040 C   0  0  1  0  0  3  0  0  0  0  0  0
   57.7150   24.3820   -0.2660 C   0  0  1  0  0  3  0  0  0  0  0  0
   56.9940   24.6510   -1.5750 C   0  0  1  0  0  3  0  0  0  0  0  0
   55.9380   25.6720   -1.1700 C   0  0  2  0  0  3  0  0  0  0  0  0
   55.5850   25.4190    0.1700 O   0  0  0  0  0  0  0  0  0  0  0  0
   56.3540   23.8110    1.7370 N   0  0  0  0  0  0  0  0  0  0  0  0
   55.9930   24.0690    3.0390 C   0  0  0  0  0  0  0  0  0  0  0  0
   55.6300   23.0500    3.8670 N   0  0  0  0  0  0  0  0  0  0  0  0
   55.6020   21.7650    3.4280 C   0  0  0  0  0  0  0  0  0  0  0  0
   55.9440   21.4760    2.1120 C   0  0  0  0  0  3  0  0  0  0  0  0
   56.3150   22.5240    1.2730 C   0  0  0  0  0  3  0  0  0  0  0  0
   55.9880   25.2510    3.4820 O   0  0  0  0  0  0  0  0  0  0  0  0
   55.2630   20.8370    4.2100 O   0  0  0  0  0  0  0  0  0  0  0  0
   55.3640   23.2600    4.8560 H   0  0  0  0  0  0  0  0  0  0  0  0
   58.9550   25.0460   -0.1850 O   0  0  0  0  0  0  0  0  0  0  0  0
   59.3780   25.0230   -1.0830 H   0  0  0  0  0  0  0  0  0  0  0  0
   57.8410   25.1720   -2.5660 O   0  0  0  0  0  0  0  0  0  0  0  0
   58.4040   25.8570   -2.1200 H   0  0  0  0  0  0  0  0  0  0  0  0
   54.6960   25.5960   -2.0610 C   0  0  0  0  0  2  0  0  0  0  0  0
   53.6130   26.1970   -1.3920 O   0  0  0  0  0  0  0  0  0  0  0  0
   52.5830   24.9620   -0.8300 P   0  0  1  0  0  0  0  0  0  0  0  0
   52.9900   23.6650   -1.4940 O   0  0  0  0  0  0  0  0  0  0  0  0
   52.7570   24.8060    0.8500 O   0  0  0  0  0  0  0  0  0  0  0  0
   52.6610   23.8360    1.0260 H   0  0  0  0  0  0  0  0  0  0  0  0
   50.9770   25.3390   -1.2560 O   0  0  0  0  0  0  0  0  0  0  0  0
   50.3070   26.2570    0.0100 P   0  0  0  0  0  0  0  0  0  0  0  0
   49.0300   26.8990   -0.4830 O   0  0  0  0  0  0  0  0  0  0  0  0
   49.9480   25.2800    1.3460 O   0  0  0  0  0  0  0  0  0  0  0  0
   49.7550   25.9170    2.0810 H   0  0  0  0  0  0  0  0  0  0  0  0
   51.3850   27.4780    0.4720 O   0  0  0  0  0  0  0  0  0  0  0  0
   50.9050   28.3230    0.2840 H   0  0  0  0  0  0  0  0  0  0  0  0
  1  6  1  1  0  0  0
  2 15  1  6  0  0  0
  2  1  1  0  0  0  0
  3 17  1  6  0  0  0
  3  4  1  0  0  0  0
  3  2  1  0  0  0  0
  4 19  1  6  0  0  0
  4  5  1  0  0  0  0
  5  1  1  0  0  0  0
  6  7  1  0  0  0  0
  7 12  2  0  0  0  0
  7  8  1  0  0  0  0
  8 14  1  0  0  0  0
  9  8  1  0  0  0  0
  9 13  2  0  0  0  0
 10  9  1  0  0  0  0
 11  6  1  0  0  0  0
 11 10  2  0  0  0  0
 16 15  1  0  0  0  0
 17 18  1  0  0  0  0
 19 20  1  0  0  0  0
 20 21  1  0  0  0  0
 21 22  2  6  0  0  0
 21 23  1  0  0  0  0
 23 24  1  0  0  0  0
 25 21  1  0  0  0  0
 25 26  1  0  0  0  0
 26 30  1  0  0  0  0
 26 28  1  0  0  0  0
 27 26  2  0  0  0  0
 28 29  1  0  0  0  0
 31 30  1  0  0  0  0
M  END
>  <MODEL>
8

>  <REMARK>
 VINA RESULT:    -6.917      6.042      8.027
 INTER + INTRA:         -11.697
 INTER:                 -10.217
 INTRA:                  -1.481
 UNBOUND:                -1.343
  Name = UDP
  11 active torsions:
  status: ('A' for Active; 'I' for Inactive)
    1  A    between atoms: N_1  and  C_9
    2  A    between atoms: C_10  and  O_11
    3  A    between atoms: C_12  and  O_15
    4  A    between atoms: C_13  and  C_16
    5  A    between atoms: C_16  and  O_17
    6  A    between atoms: O_17  and  P_18
    7  A    between atoms: P_18  and  O_20
    8  A    between atoms: P_18  and  O_21
    9  A    between atoms: O_21  and  P_22
   10  A    between atoms: P_22  and  O_24
   11  A    between atoms: P_22  and  O_25
                            x       y       z     vdW  Elec       q    Type
                         _______ _______ _______ _____ _____    ______ ____

>  <TORSDO>
F 11

$$$$
