UDP
 OpenBabel09132604103D

 31 32  0  0  1  0  0  0  0  0999 V2000
   57.6280   18.5630   -6.0730 C   0  0  1  0  0  3  0  0  0  0  0  0
   57.4450   17.3770   -7.0360 C   0  0  1  0  0  3  0  0  0  0  0  0
   56.3460   16.5540   -6.3890 C   0  0  1  0  0  3  0  0  0  0  0  0
   55.7100   17.5460   -5.4230 C   0  0  2  0  0  3  0  0  0  0  0  0
   56.7130   18.4410   -5.0030 O   0  0  0  0  0  0  0  0  0  0  0  0
   59.0130   18.6230   -5.5610 N   0  0  0  0  0  0  0  0  0  0  0  0
   59.4200   19.5990   -4.6810 C   0  0  0  0  0  0  0  0  0  0  0  0
   60.6990   19.6130   -4.2130 N   0  0  0  0  0  0  0  0  0  0  0  0
   61.5950   18.6640   -4.5890 C   0  0  0  0  0  0  0  0  0  0  0  0
   61.2060   17.6540   -5.4630 C   0  0  0  0  0  3  0  0  0  0  0  0
   59.8970   17.6490   -5.9370 C   0  0  0  0  0  3  0  0  0  0  0  0
   58.6150   20.4900   -4.2910 O   0  0  0  0  0  0  0  0  0  0  0  0
   62.7730   18.6950   -4.1450 O   0  0  0  0  0  0  0  0  0  0  0  0
   60.9960   20.3650   -3.5490 H   0  0  0  0  0  0  0  0  0  0  0  0
   57.1010   17.8150   -8.3320 O   0  0  0  0  0  0  0  0  0  0  0  0
   57.8800   17.6570   -8.9280 H   0  0  0  0  0  0  0  0  0  0  0  0
   55.4020   16.0800   -7.3150 O   0  0  0  0  0  0  0  0  0  0  0  0
   55.5210   15.0950   -7.3550 H   0  0  0  0  0  0  0  0  0  0  0  0
   55.0910   16.8470   -4.2100 C   0  0  0  0  0  2  0  0  0  0  0  0
   54.6210   15.5780   -4.6010 O   0  0  0  0  0  0  0  0  0  0  0  0
   54.0580   14.7680   -3.2120 P   0  0  1  0  0  0  0  0  0  0  0  0
   52.8440   15.5050   -2.6920 O   0  0  0  0  0  0  0  0  0  0  0  0
   53.6140   13.1850   -3.6270 O   0  0  0  0  0  0  0  0  0  0  0  0
   52.8350   13.2910   -4.2300 H   0  0  0  0  0  0  0  0  0  0  0  0
   55.2810   14.7800   -2.0260 O   0  0  0  0  0  0  0  0  0  0  0  0
   55.2550   13.2720   -1.2380 P   0  0  0  0  0  0  0  0  0  0  0  0
   53.8240   12.9400   -0.8800 O   0  0  0  0  0  0  0  0  0  0  0  0
   55.8660   12.0510   -2.2410 O   0  0  0  0  0  0  0  0  0  0  0  0
   55.1570   11.8990   -2.9160 H   0  0  0  0  0  0  0  0  0  0  0  0
   56.1680   13.3480    0.1850 O   0  0  0  0  0  0  0  0  0  0  0  0
   55.7920   14.1160    0.6850 H   0  0  0  0  0  0  0  0  0  0  0  0
  1  6  1  1  0  0  0
  1  5  1  0  0  0  0
  2 15  1  6  0  0  0
  2  3  1  0  0  0  0
  2  1  1  0  0  0  0
  3 17  1  6  0  0  0
  3  4  1  0  0  0  0
  4  5  1  0  0  0  0
  4 19  1  1  0  0  0
  6  7  1  0  0  0  0
  7 12  2  0  0  0  0
  7  8  1  0  0  0  0
  8 14  1  0  0  0  0
  9  8  1  0  0  0  0
  9 13  2  0  0  0  0
 10  9  1  0  0  0  0
 11  6  1  0  0  0  0
 11 10  2  0  0  0  0
 16 15  1  0  0  0  0
 18 17  1  0  0  0  0
 20 19  1  0  0  0  0
 20 21  1  0  0  0  0
 21 22  2  1  0  0  0
 21 25  1  0  0  0  0
 23 21  1  0  0  0  0
 24 23  1  0  0  0  0
 25 26  1  0  0  0  0
 26 27  2  0  0  0  0
 26 30  1  0  0  0  0
 28 26  1  0  0  0  0
 29 28  1  0  0  0  0
 30 31  1  0  0  0  0
M  END
>  <MODEL>
16

>  <REMARK>
 VINA RESULT:    -6.693      5.179      8.003
 INTER + INTRA:         -11.363
 INTER:                 -10.244
 INTRA:                  -1.119
 UNBOUND:                -1.343
  Name = UDP
  11 active torsions:
  status: ('A' for Active; 'I' for Inactive)
    1  A    between atoms: N_1  and  C_9
    2  A    between atoms: C_10  and  O_11
    3  A    between atoms: C_12  and  O_15
    4  A    between atoms: C_13  and  C_16
    5  A    between atoms: C_16  and  O_17
    6  A    between atoms: O_17  and  P_18
    7  A    between atoms: P_18  and  O_20
    8  A    between atoms: P_18  and  O_21
    9  A    between atoms: O_21  and  P_22
   10  A    between atoms: P_22  and  O_24
   11  A    between atoms: P_22  and  O_25
                            x       y       z     vdW  Elec       q    Type
                         _______ _______ _______ _____ _____    ______ ____

>  <TORSDO>
F 11

$$$$
