UDP
 OpenBabel09132604103D

 31 32  0  0  1  0  0  0  0  0999 V2000
   51.5360   25.7990   -1.4670 C   0  0  1  0  0  3  0  0  0  0  0  0
   52.1700   25.8720   -0.0670 C   0  0  1  0  0  3  0  0  0  0  0  0
   53.5880   25.3740   -0.2860 C   0  0  1  0  0  3  0  0  0  0  0  0
   53.7610   25.5150   -1.7940 C   0  0  2  0  0  3  0  0  0  0  0  0
   52.4990   25.3330   -2.3910 O   0  0  0  0  0  0  0  0  0  0  0  0
   50.3520   24.9160   -1.4690 N   0  0  0  0  0  0  0  0  0  0  0  0
   49.1490   25.3140   -0.9340 C   0  0  0  0  0  0  0  0  0  0  0  0
   48.0710   24.4810   -0.9700 N   0  0  0  0  0  0  0  0  0  0  0  0
   48.1520   23.2520   -1.5430 C   0  0  0  0  0  0  0  0  0  0  0  0
   49.3500   22.8300   -2.1090 C   0  0  0  0  0  3  0  0  0  0  0  0
   50.4470   23.6870   -2.0660 C   0  0  0  0  0  3  0  0  0  0  0  0
   49.0250   26.4540   -0.4080 O   0  0  0  0  0  0  0  0  0  0  0  0
   47.1430   22.4970   -1.5660 O   0  0  0  0  0  0  0  0  0  0  0  0
   47.1640   24.7940   -0.5540 H   0  0  0  0  0  0  0  0  0  0  0  0
   52.1300   27.1840    0.4480 O   0  0  0  0  0  0  0  0  0  0  0  0
   52.0130   27.8110   -0.3130 H   0  0  0  0  0  0  0  0  0  0  0  0
   54.5460   26.1370    0.4020 O   0  0  0  0  0  0  0  0  0  0  0  0
   54.1230   26.4060    1.2590 H   0  0  0  0  0  0  0  0  0  0  0  0
   54.7570   24.4960   -2.3530 C   0  0  0  0  0  2  0  0  0  0  0  0
   55.6590   24.1300   -1.3360 O   0  0  0  0  0  0  0  0  0  0  0  0
   57.2320   24.1390   -1.9910 P   0  0  1  0  0  0  0  0  0  0  0  0
   57.3860   22.9210   -2.8750 O   0  0  0  0  0  0  0  0  0  0  0  0
   57.4420   25.5370   -2.9270 O   0  0  0  0  0  0  0  0  0  0  0  0
   56.6830   25.5320   -3.5630 H   0  0  0  0  0  0  0  0  0  0  0  0
   58.3640   24.0660   -0.7200 O   0  0  0  0  0  0  0  0  0  0  0  0
   57.8820   25.1830    0.4690 P   0  0  0  0  0  0  0  0  0  0  0  0
   59.0980   25.5880    1.2710 O   0  0  0  0  0  0  0  0  0  0  0  0
   57.2040   26.5650   -0.2350 O   0  0  0  0  0  0  0  0  0  0  0  0
   56.2850   26.6140    0.1360 H   0  0  0  0  0  0  0  0  0  0  0  0
   56.7570   24.4660    1.5120 O   0  0  0  0  0  0  0  0  0  0  0  0
   56.6340   25.1240    2.2420 H   0  0  0  0  0  0  0  0  0  0  0  0
  1  6  1  1  0  0  0
  1  2  1  0  0  0  0
  2 15  1  6  0  0  0
  3  2  1  0  0  0  0
  3 17  1  1  0  0  0
  4 19  1  6  0  0  0
  4  3  1  0  0  0  0
  5  4  1  0  0  0  0
  5  1  1  0  0  0  0
  6  7  1  0  0  0  0
  7 12  2  0  0  0  0
  8  7  1  0  0  0  0
  8 14  1  0  0  0  0
  9  8  1  0  0  0  0
 10 11  2  0  0  0  0
 10  9  1  0  0  0  0
 11  6  1  0  0  0  0
 13  9  2  0  0  0  0
 16 15  1  0  0  0  0
 17 18  1  0  0  0  0
 19 20  1  0  0  0  0
 21 22  2  6  0  0  0
 21 20  1  0  0  0  0
 21 25  1  0  0  0  0
 23 21  1  0  0  0  0
 24 23  1  0  0  0  0
 25 26  1  0  0  0  0
 26 27  2  0  0  0  0
 26 30  1  0  0  0  0
 28 29  1  0  0  0  0
 28 26  1  0  0  0  0
 30 31  1  0  0  0  0
M  END
>  <MODEL>
6

>  <REMARK>
 VINA RESULT:    -7.030      6.276      9.275
 INTER + INTRA:         -11.867
 INTER:                  -9.810
 INTRA:                  -2.057
 UNBOUND:                -1.343
  Name = UDP
  11 active torsions:
  status: ('A' for Active; 'I' for Inactive)
    1  A    between atoms: N_1  and  C_9
    2  A    between atoms: C_10  and  O_11
    3  A    between atoms: C_12  and  O_15
    4  A    between atoms: C_13  and  C_16
    5  A    between atoms: C_16  and  O_17
    6  A    between atoms: O_17  and  P_18
    7  A    between atoms: P_18  and  O_20
    8  A    between atoms: P_18  and  O_21
    9  A    between atoms: O_21  and  P_22
   10  A    between atoms: P_22  and  O_24
   11  A    between atoms: P_22  and  O_25
                            x       y       z     vdW  Elec       q    Type
                         _______ _______ _______ _____ _____    ______ ____

>  <TORSDO>
F 11

$$$$
