UDP
 OpenBabel09132604103D

 31 32  0  0  1  0  0  0  0  0999 V2000
   51.8160   25.7780   -1.5760 C   0  0  1  0  0  3  0  0  0  0  0  0
   52.3280   25.7660   -0.1250 C   0  0  1  0  0  3  0  0  0  0  0  0
   53.8000   25.4220   -0.2660 C   0  0  1  0  0  3  0  0  0  0  0  0
   54.0760   25.7280   -1.7320 C   0  0  2  0  0  3  0  0  0  0  0  0
   52.8880   25.4940   -2.4520 O   0  0  0  0  0  0  0  0  0  0  0  0
   50.7270   24.7970   -1.7630 N   0  0  0  0  0  0  0  0  0  0  0  0
   49.4700   24.9990   -1.2410 C   0  0  0  0  0  0  0  0  0  0  0  0
   48.4830   24.0830   -1.4490 N   0  0  0  0  0  0  0  0  0  0  0  0
   48.7090   22.9620   -2.1830 C   0  0  0  0  0  0  0  0  0  0  0  0
   49.9640   22.7400   -2.7380 C   0  0  0  0  0  3  0  0  0  0  0  0
   50.9670   23.6810   -2.5190 C   0  0  0  0  0  3  0  0  0  0  0  0
   49.2120   26.0350   -0.5690 O   0  0  0  0  0  0  0  0  0  0  0  0
   47.7830   22.1270   -2.3630 O   0  0  0  0  0  0  0  0  0  0  0  0
   47.5340   24.2460   -1.0420 H   0  0  0  0  0  0  0  0  0  0  0  0
   52.1200   27.0110    0.5030 O   0  0  0  0  0  0  0  0  0  0  0  0
   52.0140   27.7000   -0.2040 H   0  0  0  0  0  0  0  0  0  0  0  0
   54.6220   26.1950    0.5710 O   0  0  0  0  0  0  0  0  0  0  0  0
   55.2300   25.5570    1.0300 H   0  0  0  0  0  0  0  0  0  0  0  0
   55.2070   24.8640   -2.2950 C   0  0  0  0  0  2  0  0  0  0  0  0
   55.9110   24.2760   -1.2260 O   0  0  0  0  0  0  0  0  0  0  0  0
   57.4820   24.9350   -1.1960 P   0  0  1  0  0  0  0  0  0  0  0  0
   57.9260   25.1680   -2.6230 O   0  0  0  0  0  0  0  0  0  0  0  0
   57.4530   26.4170   -0.3730 O   0  0  0  0  0  0  0  0  0  0  0  0
   56.5500   26.4650    0.0310 H   0  0  0  0  0  0  0  0  0  0  0  0
   58.5360   23.8280   -0.4450 O   0  0  0  0  0  0  0  0  0  0  0  0
   58.0440   22.2610   -0.8900 P   0  0  0  0  0  0  0  0  0  0  0  0
   59.1620   21.2950   -0.5680 O   0  0  0  0  0  0  0  0  0  0  0  0
   56.6550   21.7950   -0.0400 O   0  0  0  0  0  0  0  0  0  0  0  0
   56.9830   21.1740    0.6600 H   0  0  0  0  0  0  0  0  0  0  0  0
   57.7390   22.2020   -2.5540 O   0  0  0  0  0  0  0  0  0  0  0  0
   57.6850   23.1500   -2.8350 H   0  0  0  0  0  0  0  0  0  0  0  0
  1  6  1  1  0  0  0
  1  2  1  0  0  0  0
  2 15  1  6  0  0  0
  3  2  1  0  0  0  0
  3 17  1  1  0  0  0
  4 19  1  6  0  0  0
  4  3  1  0  0  0  0
  5  4  1  0  0  0  0
  5  1  1  0  0  0  0
  6  7  1  0  0  0  0
  7 12  2  0  0  0  0
  8  7  1  0  0  0  0
  8 14  1  0  0  0  0
  9  8  1  0  0  0  0
 10 11  2  0  0  0  0
 10  9  1  0  0  0  0
 11  6  1  0  0  0  0
 13  9  2  0  0  0  0
 16 15  1  0  0  0  0
 17 18  1  0  0  0  0
 19 20  1  0  0  0  0
 20 21  1  0  0  0  0
 21 22  2  6  0  0  0
 21 25  1  0  0  0  0
 21 23  1  0  0  0  0
 23 24  1  0  0  0  0
 26 27  2  0  0  0  0
 26 25  1  0  0  0  0
 26 28  1  0  0  0  0
 28 29  1  0  0  0  0
 30 26  1  0  0  0  0
 31 30  1  0  0  0  0
M  END
>  <MODEL>
11

>  <REMARK>
 VINA RESULT:    -6.843      6.096      9.129
 INTER + INTRA:         -11.587
 INTER:                  -9.711
 INTRA:                  -1.876
 UNBOUND:                -1.343
  Name = UDP
  11 active torsions:
  status: ('A' for Active; 'I' for Inactive)
    1  A    between atoms: N_1  and  C_9
    2  A    between atoms: C_10  and  O_11
    3  A    between atoms: C_12  and  O_15
    4  A    between atoms: C_13  and  C_16
    5  A    between atoms: C_16  and  O_17
    6  A    between atoms: O_17  and  P_18
    7  A    between atoms: P_18  and  O_20
    8  A    between atoms: P_18  and  O_21
    9  A    between atoms: O_21  and  P_22
   10  A    between atoms: P_22  and  O_24
   11  A    between atoms: P_22  and  O_25
                            x       y       z     vdW  Elec       q    Type
                         _______ _______ _______ _____ _____    ______ ____

>  <TORSDO>
F 11

$$$$
