UDP
 OpenBabel09132604103D

 31 32  0  0  1  0  0  0  0  0999 V2000
   54.8960   13.4540   -1.5510 C   0  0  1  0  0  3  0  0  0  0  0  0
   53.7230   13.9180   -2.4330 C   0  0  1  0  0  3  0  0  0  0  0  0
   54.2610   15.1580   -3.1230 C   0  0  1  0  0  3  0  0  0  0  0  0
   55.7670   15.0130   -2.9450 C   0  0  2  0  0  3  0  0  0  0  0  0
   55.9930   14.3240   -1.7380 O   0  0  0  0  0  0  0  0  0  0  0  0
   54.5070   13.4170   -0.1250 N   0  0  0  0  0  0  0  0  0  0  0  0
   54.2520   12.2330    0.5270 C   0  0  0  0  0  0  0  0  0  0  0  0
   53.9150   12.2350    1.8470 N   0  0  0  0  0  0  0  0  0  0  0  0
   53.8360   13.3940    2.5510 C   0  0  0  0  0  0  0  0  0  0  0  0
   54.1050   14.6040    1.9220 C   0  0  0  0  0  3  0  0  0  0  0  0
   54.4480   14.5930    0.5720 C   0  0  0  0  0  3  0  0  0  0  0  0
   54.3330   11.1320   -0.0830 O   0  0  0  0  0  0  0  0  0  0  0  0
   53.5220   13.3740    3.7710 O   0  0  0  0  0  0  0  0  0  0  0  0
   53.7180   11.3280    2.3300 H   0  0  0  0  0  0  0  0  0  0  0  0
   53.3370   12.9140   -3.3440 O   0  0  0  0  0  0  0  0  0  0  0  0
   52.3950   13.0850   -3.6110 H   0  0  0  0  0  0  0  0  0  0  0  0
   53.9200   15.2140   -4.4850 O   0  0  0  0  0  0  0  0  0  0  0  0
   53.5950   14.3080   -4.7280 H   0  0  0  0  0  0  0  0  0  0  0  0
   56.4730   16.3710   -2.9130 C   0  0  0  0  0  2  0  0  0  0  0  0
   55.8930   17.2130   -3.8810 O   0  0  0  0  0  0  0  0  0  0  0  0
   57.1480   17.9610   -4.7570 P   0  0  1  0  0  0  0  0  0  0  0  0
   56.5470   19.0660   -5.5980 O   0  0  0  0  0  0  0  0  0  0  0  0
   58.2670   18.6320   -3.6730 O   0  0  0  0  0  0  0  0  0  0  0  0
   58.6390   17.8570   -3.1810 H   0  0  0  0  0  0  0  0  0  0  0  0
   57.8820   16.8080   -5.7730 O   0  0  0  0  0  0  0  0  0  0  0  0
   56.8610   16.5740   -7.1140 P   0  0  0  0  0  0  0  0  0  0  0  0
   57.3250   15.3460   -7.8640 O   0  0  0  0  0  0  0  0  0  0  0  0
   55.2570   16.3430   -6.6230 O   0  0  0  0  0  0  0  0  0  0  0  0
   55.1600   16.8940   -5.8050 H   0  0  0  0  0  0  0  0  0  0  0  0
   56.9520   17.9100   -8.1490 O   0  0  0  0  0  0  0  0  0  0  0  0
   56.2260   18.5130   -7.8480 H   0  0  0  0  0  0  0  0  0  0  0  0
  1  6  1  1  0  0  0
  2 15  1  6  0  0  0
  2  1  1  0  0  0  0
  3 17  1  6  0  0  0
  3  4  1  0  0  0  0
  3  2  1  0  0  0  0
  4 19  1  1  0  0  0
  4  5  1  0  0  0  0
  5  1  1  0  0  0  0
  6  7  1  0  0  0  0
  6 11  1  0  0  0  0
  7  8  1  0  0  0  0
  8 14  1  0  0  0  0
  8  9  1  0  0  0  0
  9 13  2  0  0  0  0
 10  9  1  0  0  0  0
 11 10  2  0  0  0  0
 12  7  2  0  0  0  0
 16 15  1  0  0  0  0
 18 17  1  0  0  0  0
 20 19  1  0  0  0  0
 21 22  2  6  0  0  0
 21 20  1  0  0  0  0
 21 23  1  0  0  0  0
 23 24  1  0  0  0  0
 25 21  1  0  0  0  0
 26 28  1  0  0  0  0
 26 25  1  0  0  0  0
 27 26  2  0  0  0  0
 28 29  1  0  0  0  0
 30 31  1  0  0  0  0
 30 26  1  0  0  0  0
M  END
>  <MODEL>
20

>  <REMARK>
 VINA RESULT:    -6.483      6.309      9.484
 INTER + INTRA:         -11.048
 INTER:                  -9.200
 INTRA:                  -1.848
 UNBOUND:                -1.343
  Name = UDP
  11 active torsions:
  status: ('A' for Active; 'I' for Inactive)
    1  A    between atoms: N_1  and  C_9
    2  A    between atoms: C_10  and  O_11
    3  A    between atoms: C_12  and  O_15
    4  A    between atoms: C_13  and  C_16
    5  A    between atoms: C_16  and  O_17
    6  A    between atoms: O_17  and  P_18
    7  A    between atoms: P_18  and  O_20
    8  A    between atoms: P_18  and  O_21
    9  A    between atoms: O_21  and  P_22
   10  A    between atoms: P_22  and  O_24
   11  A    between atoms: P_22  and  O_25
                            x       y       z     vdW  Elec       q    Type
                         _______ _______ _______ _____ _____    ______ ____

>  <TORSDO>
F 11

$$$$
