UDP
 OpenBabel09132604103D

 31 32  0  0  1  0  0  0  0  0999 V2000
   58.1110   18.5660   -7.6300 C   0  0  1  0  0  3  0  0  0  0  0  0
   57.8560   17.0760   -7.3380 C   0  0  1  0  0  3  0  0  0  0  0  0
   56.4520   17.0560   -6.7620 C   0  0  1  0  0  3  0  0  0  0  0  0
   55.8910   18.4020   -7.2050 C   0  0  2  0  0  3  0  0  0  0  0  0
   56.9630   19.3120   -7.2800 O   0  0  0  0  0  0  0  0  0  0  0  0
   59.2900   19.0580   -6.8890 N   0  0  0  0  0  0  0  0  0  0  0  0
   60.5120   19.2280   -7.4990 C   0  0  0  0  0  0  0  0  0  0  0  0
   61.5740   19.7030   -6.7900 N   0  0  0  0  0  0  0  0  0  0  0  0
   61.4520   20.0330   -5.4780 C   0  0  0  0  0  0  0  0  0  0  0  0
   60.2240   19.8890   -4.8400 C   0  0  0  0  0  3  0  0  0  0  0  0
   59.1450   19.4010   -5.5720 C   0  0  0  0  0  3  0  0  0  0  0  0
   60.6650   18.9520   -8.7200 O   0  0  0  0  0  0  0  0  0  0  0  0
   62.4460   20.4700   -4.8400 O   0  0  0  0  0  0  0  0  0  0  0  0
   62.4980   19.8210   -7.2640 H   0  0  0  0  0  0  0  0  0  0  0  0
   57.9730   16.2960   -8.5070 O   0  0  0  0  0  0  0  0  0  0  0  0
   58.5580   16.7820   -9.1460 H   0  0  0  0  0  0  0  0  0  0  0  0
   55.6730   16.0000   -7.2620 O   0  0  0  0  0  0  0  0  0  0  0  0
   54.7390   16.3360   -7.2990 H   0  0  0  0  0  0  0  0  0  0  0  0
   54.8270   18.9250   -6.2370 C   0  0  0  0  0  2  0  0  0  0  0  0
   53.8380   17.9380   -6.0640 O   0  0  0  0  0  0  0  0  0  0  0  0
   52.3700   18.5420   -6.6850 P   0  0  1  0  0  0  0  0  0  0  0  0
   51.2640   18.1890   -5.7160 O   0  0  0  0  0  0  0  0  0  0  0  0
   52.4710   20.2280   -6.8260 O   0  0  0  0  0  0  0  0  0  0  0  0
   52.6890   20.5460   -5.9130 H   0  0  0  0  0  0  0  0  0  0  0  0
   52.0600   17.8100   -8.1920 O   0  0  0  0  0  0  0  0  0  0  0  0
   51.8650   19.0500   -9.3410 P   0  0  0  0  0  0  0  0  0  0  0  0
   51.6020   18.4200  -10.6890 O   0  0  0  0  0  0  0  0  0  0  0  0
   50.5590   20.0510   -8.9380 O   0  0  0  0  0  0  0  0  0  0  0  0
   50.1740   19.6470   -8.1190 H   0  0  0  0  0  0  0  0  0  0  0  0
   53.2800   19.9740   -9.4390 O   0  0  0  0  0  0  0  0  0  0  0  0
   53.2960   20.5020   -8.6020 H   0  0  0  0  0  0  0  0  0  0  0  0
  1  2  1  0  0  0  0
  1  5  1  0  0  0  0
  1  6  1  1  0  0  0
  2 15  1  6  0  0  0
  2  3  1  0  0  0  0
  3 17  1  6  0  0  0
  4  3  1  0  0  0  0
  4 19  1  1  0  0  0
  5  4  1  0  0  0  0
  6 11  1  0  0  0  0
  7  6  1  0  0  0  0
  7  8  1  0  0  0  0
  8  9  1  0  0  0  0
  9 13  2  0  0  0  0
  9 10  1  0  0  0  0
 11 10  2  0  0  0  0
 12  7  2  0  0  0  0
 14  8  1  0  0  0  0
 16 15  1  0  0  0  0
 18 17  1  0  0  0  0
 19 20  1  0  0  0  0
 21 20  1  0  0  0  0
 21 22  2  1  0  0  0
 23 21  1  0  0  0  0
 23 24  1  0  0  0  0
 25 21  1  0  0  0  0
 26 28  1  0  0  0  0
 26 25  1  0  0  0  0
 27 26  2  0  0  0  0
 28 29  1  0  0  0  0
 30 26  1  0  0  0  0
 30 31  1  0  0  0  0
M  END
>  <MODEL>
2

>  <REMARK>
 VINA RESULT:    -7.213      6.096      7.882
 INTER + INTRA:         -12.141
 INTER:                 -10.643
 INTRA:                  -1.498
 UNBOUND:                -1.343
  Name = UDP
  11 active torsions:
  status: ('A' for Active; 'I' for Inactive)
    1  A    between atoms: N_1  and  C_9
    2  A    between atoms: C_10  and  O_11
    3  A    between atoms: C_12  and  O_15
    4  A    between atoms: C_13  and  C_16
    5  A    between atoms: C_16  and  O_17
    6  A    between atoms: O_17  and  P_18
    7  A    between atoms: P_18  and  O_20
    8  A    between atoms: P_18  and  O_21
    9  A    between atoms: O_21  and  P_22
   10  A    between atoms: P_22  and  O_24
   11  A    between atoms: P_22  and  O_25
                            x       y       z     vdW  Elec       q    Type
                         _______ _______ _______ _____ _____    ______ ____

>  <TORSDO>
F 11

$$$$
