UDP
 OpenBabel09132604103D

 31 32  0  0  1  0  0  0  0  0999 V2000
   57.1670   17.9680   -6.2240 C   0  0  1  0  0  3  0  0  0  0  0  0
   56.5480   16.5590   -6.2690 C   0  0  1  0  0  3  0  0  0  0  0  0
   55.8310   16.4380   -4.9360 C   0  0  1  0  0  3  0  0  0  0  0  0
   55.7120   17.8890   -4.4880 C   0  0  2  0  0  3  0  0  0  0  0  0
   56.8180   18.5920   -5.0050 O   0  0  0  0  0  0  0  0  0  0  0  0
   58.6360   17.9070   -6.3680 N   0  0  0  0  0  0  0  0  0  0  0  0
   59.2730   18.3500   -7.5040 C   0  0  0  0  0  0  0  0  0  0  0  0
   60.6310   18.2980   -7.5960 N   0  0  0  0  0  0  0  0  0  0  0  0
   61.3870   17.8250   -6.5710 C   0  0  0  0  0  0  0  0  0  0  0  0
   60.7720   17.3880   -5.4030 C   0  0  0  0  0  3  0  0  0  0  0  0
   59.3830   17.4430   -5.3190 C   0  0  0  0  0  3  0  0  0  0  0  0
   58.6110   18.8140   -8.4730 O   0  0  0  0  0  0  0  0  0  0  0  0
   62.6420   17.7850   -6.6760 O   0  0  0  0  0  0  0  0  0  0  0  0
   61.1020   18.6320   -8.4690 H   0  0  0  0  0  0  0  0  0  0  0  0
   55.6770   16.4150   -7.3680 O   0  0  0  0  0  0  0  0  0  0  0  0
   55.2160   15.5400   -7.2840 H   0  0  0  0  0  0  0  0  0  0  0  0
   54.5630   15.8440   -5.0520 O   0  0  0  0  0  0  0  0  0  0  0  0
   54.7080   14.8640   -4.9860 H   0  0  0  0  0  0  0  0  0  0  0  0
   55.6770   18.0160   -2.9630 C   0  0  0  0  0  2  0  0  0  0  0  0
   54.5360   17.3520   -2.4730 O   0  0  0  0  0  0  0  0  0  0  0  0
   55.0500   16.1390   -1.3920 P   0  0  1  0  0  0  0  0  0  0  0  0
   56.2640   16.6500   -0.6470 O   0  0  0  0  0  0  0  0  0  0  0  0
   53.8100   15.8160   -0.2810 O   0  0  0  0  0  0  0  0  0  0  0  0
   54.2580   15.8090    0.6030 H   0  0  0  0  0  0  0  0  0  0  0  0
   55.4700   14.7460   -2.2770 O   0  0  0  0  0  0  0  0  0  0  0  0
   55.3520   13.4110   -1.2290 P   0  0  0  0  0  0  0  0  0  0  0  0
   53.8970   13.0180   -1.1100 O   0  0  0  0  0  0  0  0  0  0  0  0
   56.2290   12.0910   -1.8270 O   0  0  0  0  0  0  0  0  0  0  0  0
   57.1400   12.4460   -1.9930 H   0  0  0  0  0  0  0  0  0  0  0  0
   55.9300   13.8290    0.3060 O   0  0  0  0  0  0  0  0  0  0  0  0
   56.7950   13.3540    0.3880 H   0  0  0  0  0  0  0  0  0  0  0  0
  1  6  1  1  0  0  0
  1  5  1  0  0  0  0
  2 15  1  6  0  0  0
  2  1  1  0  0  0  0
  2  3  1  0  0  0  0
  3 17  1  6  0  0  0
  3  4  1  0  0  0  0
  4 19  1  1  0  0  0
  5  4  1  0  0  0  0
  6 11  1  0  0  0  0
  7  6  1  0  0  0  0
  8  7  1  0  0  0  0
  8  9  1  0  0  0  0
  9 10  1  0  0  0  0
 10 11  2  0  0  0  0
 12  7  2  0  0  0  0
 13  9  2  0  0  0  0
 14  8  1  0  0  0  0
 15 16  1  0  0  0  0
 17 18  1  0  0  0  0
 19 20  1  0  0  0  0
 20 21  1  0  0  0  0
 21 22  2  1  0  0  0
 21 23  1  0  0  0  0
 23 24  1  0  0  0  0
 25 21  1  0  0  0  0
 25 26  1  0  0  0  0
 26 27  2  0  0  0  0
 26 30  1  0  0  0  0
 28 26  1  0  0  0  0
 29 28  1  0  0  0  0
 30 31  1  0  0  0  0
M  END
>  <MODEL>
12

>  <REMARK>
 VINA RESULT:    -6.767      5.518      7.309
 INTER + INTRA:         -11.473
 INTER:                  -9.871
 INTRA:                  -1.602
 UNBOUND:                -1.343
  Name = UDP
  11 active torsions:
  status: ('A' for Active; 'I' for Inactive)
    1  A    between atoms: N_1  and  C_9
    2  A    between atoms: C_10  and  O_11
    3  A    between atoms: C_12  and  O_15
    4  A    between atoms: C_13  and  C_16
    5  A    between atoms: C_16  and  O_17
    6  A    between atoms: O_17  and  P_18
    7  A    between atoms: P_18  and  O_20
    8  A    between atoms: P_18  and  O_21
    9  A    between atoms: O_21  and  P_22
   10  A    between atoms: P_22  and  O_24
   11  A    between atoms: P_22  and  O_25
                            x       y       z     vdW  Elec       q    Type
                         _______ _______ _______ _____ _____    ______ ____

>  <TORSDO>
F 11

$$$$
