UDP
 OpenBabel09132604103D

 31 32  0  0  1  0  0  0  0  0999 V2000
   58.3560   18.5430   -7.3330 C   0  0  1  0  0  3  0  0  0  0  0  0
   57.8690   17.0950   -7.1410 C   0  0  1  0  0  3  0  0  0  0  0  0
   56.4170   17.2550   -6.7300 C   0  0  1  0  0  3  0  0  0  0  0  0
   56.1000   18.6790   -7.1700 C   0  0  2  0  0  3  0  0  0  0  0  0
   57.2870   19.4310   -7.0810 O   0  0  0  0  0  0  0  0  0  0  0  0
   59.4950   18.8430   -6.4400 N   0  0  0  0  0  0  0  0  0  0  0  0
   60.7360   18.2800   -6.6330 C   0  0  0  0  0  0  0  0  0  0  0  0
   61.7690   18.5940   -5.8030 N   0  0  0  0  0  0  0  0  0  0  0  0
   61.6070   19.4730   -4.7800 C   0  0  0  0  0  0  0  0  0  0  0  0
   60.3680   20.0710   -4.5720 C   0  0  0  0  0  3  0  0  0  0  0  0
   59.3180   19.7430   -5.4250 C   0  0  0  0  0  3  0  0  0  0  0  0
   60.9360   17.4730   -7.5820 O   0  0  0  0  0  0  0  0  0  0  0  0
   62.5750   19.7500   -4.0230 O   0  0  0  0  0  0  0  0  0  0  0  0
   62.7060   18.1550   -5.9570 H   0  0  0  0  0  0  0  0  0  0  0  0
   58.0170   16.3420   -8.3240 O   0  0  0  0  0  0  0  0  0  0  0  0
   58.0460   15.3810   -8.0770 H   0  0  0  0  0  0  0  0  0  0  0  0
   55.5670   16.3330   -7.3630 O   0  0  0  0  0  0  0  0  0  0  0  0
   56.0990   15.9170   -8.0900 H   0  0  0  0  0  0  0  0  0  0  0  0
   55.0100   19.3160   -6.3050 C   0  0  0  0  0  2  0  0  0  0  0  0
   54.7670   18.4910   -5.1900 O   0  0  0  0  0  0  0  0  0  0  0  0
   55.4640   19.2280   -3.8210 P   0  0  1  0  0  0  0  0  0  0  0  0
   55.6010   20.7090   -4.0960 O   0  0  0  0  0  0  0  0  0  0  0  0
   54.4480   19.0010   -2.4830 O   0  0  0  0  0  0  0  0  0  0  0  0
   53.5370   19.1970   -2.8200 H   0  0  0  0  0  0  0  0  0  0  0  0
   57.0060   18.5550   -3.5510 O   0  0  0  0  0  0  0  0  0  0  0  0
   56.7870   17.0200   -2.8510 P   0  0  0  0  0  0  0  0  0  0  0  0
   56.6930   17.1830   -1.3510 O   0  0  0  0  0  0  0  0  0  0  0  0
   55.3640   16.2920   -3.4130 O   0  0  0  0  0  0  0  0  0  0  0  0
   54.9550   15.8820   -2.6090 H   0  0  0  0  0  0  0  0  0  0  0  0
   58.1120   16.0280   -3.2080 O   0  0  0  0  0  0  0  0  0  0  0  0
   58.1620   15.3920   -2.4500 H   0  0  0  0  0  0  0  0  0  0  0  0
  1  2  1  0  0  0  0
  1  5  1  0  0  0  0
  1  6  1  1  0  0  0
  2 15  1  6  0  0  0
  2  3  1  0  0  0  0
  3 17  1  6  0  0  0
  4  5  1  0  0  0  0
  4  3  1  0  0  0  0
  4 19  1  1  0  0  0
  6 11  1  0  0  0  0
  7  6  1  0  0  0  0
  7  8  1  0  0  0  0
  8  9  1  0  0  0  0
  9 10  1  0  0  0  0
  9 13  2  0  0  0  0
 11 10  2  0  0  0  0
 12  7  2  0  0  0  0
 14  8  1  0  0  0  0
 15 16  1  0  0  0  0
 18 17  1  0  0  0  0
 19 20  1  0  0  0  0
 20 21  1  0  0  0  0
 21 22  2  6  0  0  0
 21 25  1  0  0  0  0
 21 23  1  0  0  0  0
 24 23  1  0  0  0  0
 25 26  1  0  0  0  0
 26 27  2  0  0  0  0
 28 26  1  0  0  0  0
 28 29  1  0  0  0  0
 30 26  1  0  0  0  0
 30 31  1  0  0  0  0
M  END
>  <MODEL>
9

>  <REMARK>
 VINA RESULT:    -6.897      4.448      6.182
 INTER + INTRA:         -11.667
 INTER:                  -9.829
 INTRA:                  -1.838
 UNBOUND:                -1.343
  Name = UDP
  11 active torsions:
  status: ('A' for Active; 'I' for Inactive)
    1  A    between atoms: N_1  and  C_9
    2  A    between atoms: C_10  and  O_11
    3  A    between atoms: C_12  and  O_15
    4  A    between atoms: C_13  and  C_16
    5  A    between atoms: C_16  and  O_17
    6  A    between atoms: O_17  and  P_18
    7  A    between atoms: P_18  and  O_20
    8  A    between atoms: P_18  and  O_21
    9  A    between atoms: O_21  and  P_22
   10  A    between atoms: P_22  and  O_24
   11  A    between atoms: P_22  and  O_25
                            x       y       z     vdW  Elec       q    Type
                         _______ _______ _______ _____ _____    ______ ____

>  <TORSDO>
F 11

$$$$
