5GP
 OpenBabel09132604103D

 31 33  0  0  1  0  0  0  0  0999 V2000
   36.7370   -3.6160   45.4550 C   0  0  1  0  0  3  0  0  0  0  0  0
   35.4700   -3.1990   45.9280 O   0  0  0  0  0  0  0  0  0  0  0  0
   37.5790   -4.1140   46.6390 C   0  0  2  0  0  3  0  0  0  0  0  0
   36.5220   -4.4850   47.6520 C   0  0  2  0  0  3  0  0  0  0  0  0
   35.3620   -3.5570   47.2920 C   0  0  2  0  0  3  0  0  0  0  0  0
   34.0790   -4.2140   47.5410 N   0  0  0  0  0  0  0  0  0  0  0  0
   33.2080   -4.7290   46.6320 C   0  0  0  0  0  3  0  0  0  0  0  0
   32.1500   -5.3720   47.2030 N   0  0  0  0  0  0  0  0  0  0  0  0
   32.4040   -5.2460   48.5190 C   0  0  0  0  0  0  0  0  0  0  0  0
   31.6860   -5.7280   49.6040 C   0  0  0  0  0  0  0  0  0  0  0  0
   30.6140   -6.3690   49.4440 O   0  0  0  0  0  0  0  0  0  0  0  0
   32.1820   -5.4880   50.8570 N   0  0  0  0  0  0  0  0  0  0  0  0
   33.3590   -4.7980   51.0360 C   0  0  0  0  0  0  0  0  0  0  0  0
   33.8610   -4.5640   52.3510 N   0  0  0  0  0  0  0  0  0  0  0  0
   34.0570   -4.3320   49.9550 N   0  0  0  0  0  0  0  0  0  0  0  0
   33.5520   -4.5660   48.7200 C   0  0  0  0  0  0  0  0  0  0  0  0
   31.6580   -5.8410   51.6900 H   0  0  0  0  0  0  0  0  0  0  0  0
   34.7540   -4.0420   52.4900 H   0  0  0  0  0  0  0  0  0  0  0  0
   33.3440   -4.9120   53.1890 H   0  0  0  0  0  0  0  0  0  0  0  0
   38.4450   -3.1070   47.1130 O   0  0  0  0  0  0  0  0  0  0  0  0
   39.0360   -3.5020   47.8060 H   0  0  0  0  0  0  0  0  0  0  0  0
   36.9520   -4.3620   48.9890 O   0  0  0  0  0  0  0  0  0  0  0  0
   37.7380   -4.9520   49.1270 H   0  0  0  0  0  0  0  0  0  0  0  0
   36.5460   -4.7100   44.3970 C   0  0  0  0  0  2  0  0  0  0  0  0
   35.3250   -4.4980   43.7290 O   0  0  0  0  0  0  0  0  0  0  0  0
   35.6590   -3.9350   42.1530 P   0  0  0  0  0  0  0  0  0  0  0  0
   34.8920   -2.6570   41.8880 O   0  0  0  0  0  0  0  0  0  0  0  0
   35.2410   -5.1060   41.0020 O   0  0  0  0  0  0  0  0  0  0  0  0
   35.9530   -5.0600   40.3150 H   0  0  0  0  0  0  0  0  0  0  0  0
   37.3150   -3.6190   42.0270 O   0  0  0  0  0  0  0  0  0  0  0  0
   37.5160   -3.0130   42.7850 H   0  0  0  0  0  0  0  0  0  0  0  0
  1 24  1  6  0  0  0
  1  2  1  0  0  0  0
  1  3  1  0  0  0  0
  2  5  1  0  0  0  0
  3 20  1  1  0  0  0
  3  4  1  0  0  0  0
  4 22  1  1  0  0  0
  5  6  1  6  0  0  0
  5  4  1  0  0  0  0
  6 16  1  0  0  0  0
  7  8  2  0  0  0  0
  7  6  1  0  0  0  0
  8  9  1  0  0  0  0
  9 16  2  0  0  0  0
  9 10  1  0  0  0  0
 10 12  1  0  0  0  0
 11 10  2  0  0  0  0
 12 13  1  0  0  0  0
 12 17  1  0  0  0  0
 13 14  1  0  0  0  0
 14 18  1  0  0  0  0
 14 19  1  0  0  0  0
 15 13  2  0  0  0  0
 16 15  1  0  0  0  0
 20 21  1  0  0  0  0
 22 23  1  0  0  0  0
 25 24  1  0  0  0  0
 26 25  1  0  0  0  0
 27 26  2  0  0  0  0
 28 26  1  0  0  0  0
 29 28  1  0  0  0  0
 30 26  1  0  0  0  0
 30 31  1  0  0  0  0
M  END
>  <MODEL>
3

>  <REMARK>
 VINA RESULT:    -6.651     10.208     12.908
 INTER + INTRA:          -9.928
 INTER:                  -9.053
 INTRA:                  -0.875
 UNBOUND:                -0.944
  Name = 5GP
  8 active torsions:
  status: ('A' for Active; 'I' for Inactive)
    1  A    between atoms: P_1  and  O_3
    2  A    between atoms: P_1  and  O_4
    3  A    between atoms: P_1  and  O_5
    4  A    between atoms: O_5  and  C_6
    5  A    between atoms: C_6  and  C_7
    6  A    between atoms: C_9  and  O_10
    7  A    between atoms: C_11  and  O_12
    8  A    between atoms: C_13  and  N_14
                            x       y       z     vdW  Elec       q    Type
                         _______ _______ _______ _____ _____    ______ ____

>  <TORSDO>
F 8

$$$$
