5GP
 OpenBabel09132604103D

 31 33  0  0  1  0  0  0  0  0999 V2000
   24.1650   -3.2890   53.4350 C   0  0  1  0  0  3  0  0  0  0  0  0
   23.9830   -3.0360   52.0550 O   0  0  0  0  0  0  0  0  0  0  0  0
   25.5520   -2.7860   53.8610 C   0  0  2  0  0  3  0  0  0  0  0  0
   25.8570   -1.7500   52.8060 C   0  0  2  0  0  3  0  0  0  0  0  0
   25.0640   -2.2490   51.5980 C   0  0  2  0  0  3  0  0  0  0  0  0
   24.5690   -1.1230   50.8050 N   0  0  0  0  0  0  0  0  0  0  0  0
   23.3420   -0.5380   50.8490 C   0  0  0  0  0  3  0  0  0  0  0  0
   23.2400    0.5620   50.0520 N   0  0  0  0  0  0  0  0  0  0  0  0
   24.4700    0.6500   49.5100 C   0  0  0  0  0  0  0  0  0  0  0  0
   24.9800    1.5940   48.6310 C   0  0  0  0  0  0  0  0  0  0  0  0
   24.2630    2.5350   48.1970 O   0  0  0  0  0  0  0  0  0  0  0  0
   26.2890    1.4740   48.2520 N   0  0  0  0  0  0  0  0  0  0  0  0
   27.0780    0.4540   48.7320 C   0  0  0  0  0  0  0  0  0  0  0  0
   28.4430    0.3520   48.3290 N   0  0  0  0  0  0  0  0  0  0  0  0
   26.5610   -0.4680   49.6020 N   0  0  0  0  0  0  0  0  0  0  0  0
   25.2610   -0.3460   49.9630 C   0  0  0  0  0  0  0  0  0  0  0  0
   26.6950    2.1740   47.5900 H   0  0  0  0  0  0  0  0  0  0  0  0
   29.0440   -0.4200   48.6920 H   0  0  0  0  0  0  0  0  0  0  0  0
   28.8570    1.0450   47.6670 H   0  0  0  0  0  0  0  0  0  0  0  0
   26.4960   -3.8340   53.8730 O   0  0  0  0  0  0  0  0  0  0  0  0
   26.3480   -4.3810   54.6880 H   0  0  0  0  0  0  0  0  0  0  0  0
   27.2340   -1.5890   52.5530 O   0  0  0  0  0  0  0  0  0  0  0  0
   27.3650   -1.4320   51.5820 H   0  0  0  0  0  0  0  0  0  0  0  0
   23.0460   -2.6010   54.2270 C   0  0  0  0  0  2  0  0  0  0  0  0
   22.2220   -3.5820   54.8100 O   0  0  0  0  0  0  0  0  0  0  0  0
   20.7520   -3.6410   53.9450 P   0  0  0  0  0  0  0  0  0  0  0  0
   20.3040   -5.0780   53.7840 O   0  0  0  0  0  0  0  0  0  0  0  0
   20.9280   -2.9200   52.4220 O   0  0  0  0  0  0  0  0  0  0  0  0
   20.4040   -2.0800   52.4710 H   0  0  0  0  0  0  0  0  0  0  0  0
   19.5750   -2.7930   54.8140 O   0  0  0  0  0  0  0  0  0  0  0  0
   18.7210   -3.0080   54.3600 H   0  0  0  0  0  0  0  0  0  0  0  0
  1  3  1  0  0  0  0
  1 24  1  1  0  0  0
  2  1  1  0  0  0  0
  3 20  1  6  0  0  0
  4 22  1  6  0  0  0
  4  3  1  0  0  0  0
  5  6  1  1  0  0  0
  5  2  1  0  0  0  0
  5  4  1  0  0  0  0
  6  7  1  0  0  0  0
  8  7  2  0  0  0  0
  9 16  2  0  0  0  0
  9  8  1  0  0  0  0
 10  9  1  0  0  0  0
 11 10  2  0  0  0  0
 12 10  1  0  0  0  0
 12 13  1  0  0  0  0
 13 15  2  0  0  0  0
 14 18  1  0  0  0  0
 14 13  1  0  0  0  0
 15 16  1  0  0  0  0
 16  6  1  0  0  0  0
 17 12  1  0  0  0  0
 19 14  1  0  0  0  0
 20 21  1  0  0  0  0
 23 22  1  0  0  0  0
 24 25  1  0  0  0  0
 26 25  1  0  0  0  0
 26 30  1  0  0  0  0
 27 26  2  0  0  0  0
 28 29  1  0  0  0  0
 28 26  1  0  0  0  0
 31 30  1  0  0  0  0
M  END
>  <MODEL>
13

>  <REMARK>
 VINA RESULT:    -6.285      1.929      2.448
 INTER + INTRA:          -9.434
 INTER:                  -8.379
 INTRA:                  -1.054
 UNBOUND:                -0.944
  Name = 5GP
  8 active torsions:
  status: ('A' for Active; 'I' for Inactive)
    1  A    between atoms: P_1  and  O_3
    2  A    between atoms: P_1  and  O_4
    3  A    between atoms: P_1  and  O_5
    4  A    between atoms: O_5  and  C_6
    5  A    between atoms: C_6  and  C_7
    6  A    between atoms: C_9  and  O_10
    7  A    between atoms: C_11  and  O_12
    8  A    between atoms: C_13  and  N_14
                            x       y       z     vdW  Elec       q    Type
                         _______ _______ _______ _____ _____    ______ ____

>  <TORSDO>
F 8

$$$$
