5GP
 OpenBabel09132604103D

 31 33  0  0  1  0  0  0  0  0999 V2000
   22.7470   -0.0530   49.8600 C   0  0  1  0  0  3  0  0  0  0  0  0
   23.1590   -0.3470   51.1810 O   0  0  0  0  0  0  0  0  0  0  0  0
   23.9770    0.3170   49.0180 C   0  0  2  0  0  3  0  0  0  0  0  0
   25.0990   -0.3480   49.7800 C   0  0  2  0  0  3  0  0  0  0  0  0
   24.5720   -0.3720   51.2140 C   0  0  2  0  0  3  0  0  0  0  0  0
   25.0390   -1.5690   51.9150 N   0  0  0  0  0  0  0  0  0  0  0  0
   25.5760   -2.7000   51.3820 C   0  0  0  0  0  3  0  0  0  0  0  0
   26.0080   -3.5860   52.3230 N   0  0  0  0  0  0  0  0  0  0  0  0
   25.7260   -2.9520   53.4780 C   0  0  0  0  0  0  0  0  0  0  0  0
   25.9650   -3.3530   54.7840 C   0  0  0  0  0  0  0  0  0  0  0  0
   26.4980   -4.4670   55.0370 O   0  0  0  0  0  0  0  0  0  0  0  0
   25.6070   -2.5000   55.7920 N   0  0  0  0  0  0  0  0  0  0  0  0
   25.0360   -1.2780   55.5190 C   0  0  0  0  0  0  0  0  0  0  0  0
   24.6760   -0.4000   56.5850 N   0  0  0  0  0  0  0  0  0  0  0  0
   24.8090   -0.8950   54.2240 N   0  0  0  0  0  0  0  0  0  0  0  0
   25.1580   -1.7520   53.2350 C   0  0  0  0  0  0  0  0  0  0  0  0
   25.7770   -2.7810   56.7840 H   0  0  0  0  0  0  0  0  0  0  0  0
   24.2430    0.5270   56.3810 H   0  0  0  0  0  0  0  0  0  0  0  0
   24.8410   -0.6730   57.5790 H   0  0  0  0  0  0  0  0  0  0  0  0
   24.1400    1.7150   48.9350 O   0  0  0  0  0  0  0  0  0  0  0  0
   24.3720    1.9480   47.9980 H   0  0  0  0  0  0  0  0  0  0  0  0
   26.3400    0.3070   49.6430 O   0  0  0  0  0  0  0  0  0  0  0  0
   27.0510   -0.3760   49.5260 H   0  0  0  0  0  0  0  0  0  0  0  0
   22.0090   -1.2660   49.2800 C   0  0  0  0  0  2  0  0  0  0  0  0
   22.2540   -1.3370   47.8950 O   0  0  0  0  0  0  0  0  0  0  0  0
   21.4820   -2.7280   47.2770 P   0  0  0  0  0  0  0  0  0  0  0  0
   20.7930   -2.3980   45.9700 O   0  0  0  0  0  0  0  0  0  0  0  0
   20.3520   -3.3250   48.3890 O   0  0  0  0  0  0  0  0  0  0  0  0
   20.8760   -3.5360   49.2030 H   0  0  0  0  0  0  0  0  0  0  0  0
   22.6500   -3.9190   46.9970 O   0  0  0  0  0  0  0  0  0  0  0  0
   23.4670   -3.5830   47.4440 H   0  0  0  0  0  0  0  0  0  0  0  0
  1 24  1  6  0  0  0
  1  2  1  0  0  0  0
  2  5  1  0  0  0  0
  3 20  1  1  0  0  0
  3  4  1  0  0  0  0
  3  1  1  0  0  0  0
  4 22  1  1  0  0  0
  4  5  1  0  0  0  0
  5  6  1  6  0  0  0
  6 16  1  0  0  0  0
  7  6  1  0  0  0  0
  7  8  2  0  0  0  0
  8  9  1  0  0  0  0
  9 10  1  0  0  0  0
 10 11  2  0  0  0  0
 10 12  1  0  0  0  0
 12 17  1  0  0  0  0
 13 12  1  0  0  0  0
 13 14  1  0  0  0  0
 14 19  1  0  0  0  0
 15 13  2  0  0  0  0
 16  9  2  0  0  0  0
 16 15  1  0  0  0  0
 18 14  1  0  0  0  0
 21 20  1  0  0  0  0
 23 22  1  0  0  0  0
 25 24  1  0  0  0  0
 26 25  1  0  0  0  0
 26 28  1  0  0  0  0
 27 26  2  0  0  0  0
 28 29  1  0  0  0  0
 30 26  1  0  0  0  0
 30 31  1  0  0  0  0
M  END
>  <MODEL>
15

>  <REMARK>
 VINA RESULT:    -6.222      3.768      6.906
 INTER + INTRA:          -9.348
 INTER:                  -8.656
 INTRA:                  -0.692
 UNBOUND:                -0.944
  Name = 5GP
  8 active torsions:
  status: ('A' for Active; 'I' for Inactive)
    1  A    between atoms: P_1  and  O_3
    2  A    between atoms: P_1  and  O_4
    3  A    between atoms: P_1  and  O_5
    4  A    between atoms: O_5  and  C_6
    5  A    between atoms: C_6  and  C_7
    6  A    between atoms: C_9  and  O_10
    7  A    between atoms: C_11  and  O_12
    8  A    between atoms: C_13  and  N_14
                            x       y       z     vdW  Elec       q    Type
                         _______ _______ _______ _____ _____    ______ ____

>  <TORSDO>
F 8

$$$$
