5GP
 OpenBabel09132604103D

 31 33  0  0  1  0  0  0  0  0999 V2000
   25.8030   -2.3310   55.0950 C   0  0  1  0  0  3  0  0  0  0  0  0
   25.7010   -1.7910   53.7910 O   0  0  0  0  0  0  0  0  0  0  0  0
   24.5420   -1.9650   55.8920 C   0  0  2  0  0  3  0  0  0  0  0  0
   23.5310   -1.7160   54.7980 C   0  0  2  0  0  3  0  0  0  0  0  0
   24.4000   -1.2630   53.6260 C   0  0  2  0  0  3  0  0  0  0  0  0
   23.8300   -1.7150   52.3560 N   0  0  0  0  0  0  0  0  0  0  0  0
   23.0820   -2.8250   52.1180 C   0  0  0  0  0  3  0  0  0  0  0  0
   22.6160   -2.8970   50.8400 N   0  0  0  0  0  0  0  0  0  0  0  0
   23.0980   -1.7680   50.2850 C   0  0  0  0  0  0  0  0  0  0  0  0
   22.9280   -1.2760   49.0000 C   0  0  0  0  0  0  0  0  0  0  0  0
   22.2620   -1.9140   48.1400 O   0  0  0  0  0  0  0  0  0  0  0  0
   23.5030   -0.0730   48.6930 N   0  0  0  0  0  0  0  0  0  0  0  0
   24.2220    0.6310   49.6320 C   0  0  0  0  0  0  0  0  0  0  0  0
   24.8080    1.8870   49.2930 N   0  0  0  0  0  0  0  0  0  0  0  0
   24.3780    0.1330   50.8980 N   0  0  0  0  0  0  0  0  0  0  0  0
   23.8120   -1.0630   51.1880 C   0  0  0  0  0  0  0  0  0  0  0  0
   23.3890    0.3170   47.7300 H   0  0  0  0  0  0  0  0  0  0  0  0
   25.3520    2.4240   50.0030 H   0  0  0  0  0  0  0  0  0  0  0  0
   24.7010    2.2840   48.3340 H   0  0  0  0  0  0  0  0  0  0  0  0
   24.7550   -0.8260   56.6950 O   0  0  0  0  0  0  0  0  0  0  0  0
   25.6310   -0.9250   57.1540 H   0  0  0  0  0  0  0  0  0  0  0  0
   22.5310   -0.7890   55.1540 O   0  0  0  0  0  0  0  0  0  0  0  0
   22.0340   -1.1390   55.9380 H   0  0  0  0  0  0  0  0  0  0  0  0
   25.9900   -3.8510   54.9990 C   0  0  0  0  0  2  0  0  0  0  0  0
   26.3100   -4.1930   53.6720 O   0  0  0  0  0  0  0  0  0  0  0  0
   25.5550   -5.6770   53.2960 P   0  0  0  0  0  0  0  0  0  0  0  0
   25.2780   -5.7540   51.8100 O   0  0  0  0  0  0  0  0  0  0  0  0
   24.1080   -5.8440   54.1620 O   0  0  0  0  0  0  0  0  0  0  0  0
   24.3790   -6.1580   55.0610 H   0  0  0  0  0  0  0  0  0  0  0  0
   26.5940   -6.9400   53.7280 O   0  0  0  0  0  0  0  0  0  0  0  0
   26.4910   -7.6100   53.0050 H   0  0  0  0  0  0  0  0  0  0  0  0
  1 24  1  6  0  0  0
  1  3  1  0  0  0  0
  2  1  1  0  0  0  0
  3 20  1  6  0  0  0
  4 22  1  1  0  0  0
  4  3  1  0  0  0  0
  5  6  1  6  0  0  0
  5  2  1  0  0  0  0
  5  4  1  0  0  0  0
  7  6  1  0  0  0  0
  8  7  2  0  0  0  0
  9  8  1  0  0  0  0
  9 16  2  0  0  0  0
 10  9  1  0  0  0  0
 11 10  2  0  0  0  0
 12 10  1  0  0  0  0
 12 13  1  0  0  0  0
 13 15  2  0  0  0  0
 14 13  1  0  0  0  0
 14 18  1  0  0  0  0
 15 16  1  0  0  0  0
 16  6  1  0  0  0  0
 17 12  1  0  0  0  0
 19 14  1  0  0  0  0
 20 21  1  0  0  0  0
 22 23  1  0  0  0  0
 25 24  1  0  0  0  0
 26 25  1  0  0  0  0
 26 30  1  0  0  0  0
 26 28  1  0  0  0  0
 27 26  2  0  0  0  0
 28 29  1  0  0  0  0
 31 30  1  0  0  0  0
M  END
>  <MODEL>
11

>  <REMARK>
 VINA RESULT:    -6.405      2.505      4.175
 INTER + INTRA:          -9.596
 INTER:                  -8.631
 INTRA:                  -0.964
 UNBOUND:                -0.944
  Name = 5GP
  8 active torsions:
  status: ('A' for Active; 'I' for Inactive)
    1  A    between atoms: P_1  and  O_3
    2  A    between atoms: P_1  and  O_4
    3  A    between atoms: P_1  and  O_5
    4  A    between atoms: O_5  and  C_6
    5  A    between atoms: C_6  and  C_7
    6  A    between atoms: C_9  and  O_10
    7  A    between atoms: C_11  and  O_12
    8  A    between atoms: C_13  and  N_14
                            x       y       z     vdW  Elec       q    Type
                         _______ _______ _______ _____ _____    ______ ____

>  <TORSDO>
F 8

$$$$
