5GP
 OpenBabel09132604103D

 31 33  0  0  1  0  0  0  0  0999 V2000
   32.6990   -5.0370   49.9120 C   0  0  1  0  0  3  0  0  0  0  0  0
   33.4680   -5.4980   48.8170 O   0  0  0  0  0  0  0  0  0  0  0  0
   33.5570   -4.0970   50.7710 C   0  0  2  0  0  3  0  0  0  0  0  0
   34.6030   -3.6270   49.7880 C   0  0  2  0  0  3  0  0  0  0  0  0
   34.6920   -4.7910   48.8020 C   0  0  2  0  0  3  0  0  0  0  0  0
   34.9750   -4.3020   47.4520 N   0  0  0  0  0  0  0  0  0  0  0  0
   34.4750   -3.1980   46.8350 C   0  0  0  0  0  3  0  0  0  0  0  0
   35.0280   -2.9670   45.6110 N   0  0  0  0  0  0  0  0  0  0  0  0
   35.9120   -3.9770   45.4910 C   0  0  0  0  0  0  0  0  0  0  0  0
   36.7960   -4.2550   44.4590 C   0  0  0  0  0  0  0  0  0  0  0  0
   36.8430   -3.5320   43.4280 O   0  0  0  0  0  0  0  0  0  0  0  0
   37.6220   -5.3370   44.5970 N   0  0  0  0  0  0  0  0  0  0  0  0
   37.5820   -6.1220   45.7270 C   0  0  0  0  0  0  0  0  0  0  0  0
   38.4560   -7.2430   45.8540 N   0  0  0  0  0  0  0  0  0  0  0  0
   36.7050   -5.8330   46.7380 N   0  0  0  0  0  0  0  0  0  0  0  0
   35.8860   -4.7640   46.5870 C   0  0  0  0  0  0  0  0  0  0  0  0
   38.2970   -5.5670   43.8330 H   0  0  0  0  0  0  0  0  0  0  0  0
   38.4280   -7.8390   46.7100 H   0  0  0  0  0  0  0  0  0  0  0  0
   39.1320   -7.4800   45.0950 H   0  0  0  0  0  0  0  0  0  0  0  0
   34.1210   -4.7780   51.8690 O   0  0  0  0  0  0  0  0  0  0  0  0
   34.5220   -4.1080   52.4820 H   0  0  0  0  0  0  0  0  0  0  0  0
   35.8340   -3.2970   50.3880 O   0  0  0  0  0  0  0  0  0  0  0  0
   36.2360   -4.1200   50.7700 H   0  0  0  0  0  0  0  0  0  0  0  0
   31.4430   -4.3310   49.3840 C   0  0  0  0  0  2  0  0  0  0  0  0
   30.7100   -3.8190   50.4720 O   0  0  0  0  0  0  0  0  0  0  0  0
   30.1790   -2.2470   50.0770 P   0  0  0  0  0  0  0  0  0  0  0  0
   31.3650   -1.3130   49.9690 O   0  0  0  0  0  0  0  0  0  0  0  0
   29.0990   -1.6710   51.2490 O   0  0  0  0  0  0  0  0  0  0  0  0
   28.5530   -2.4570   51.5060 H   0  0  0  0  0  0  0  0  0  0  0  0
   29.3830   -2.2990   48.5860 O   0  0  0  0  0  0  0  0  0  0  0  0
   30.1030   -2.4330   47.9190 H   0  0  0  0  0  0  0  0  0  0  0  0
  1 24  1  6  0  0  0
  1  3  1  0  0  0  0
  2  1  1  0  0  0  0
  3 20  1  1  0  0  0
  4 22  1  1  0  0  0
  4  3  1  0  0  0  0
  5  6  1  6  0  0  0
  5  2  1  0  0  0  0
  5  4  1  0  0  0  0
  7  6  1  0  0  0  0
  8  7  2  0  0  0  0
  9  8  1  0  0  0  0
  9 16  2  0  0  0  0
 10 12  1  0  0  0  0
 10  9  1  0  0  0  0
 11 10  2  0  0  0  0
 12 13  1  0  0  0  0
 13 14  1  0  0  0  0
 13 15  2  0  0  0  0
 14 18  1  0  0  0  0
 16 15  1  0  0  0  0
 16  6  1  0  0  0  0
 17 12  1  0  0  0  0
 19 14  1  0  0  0  0
 20 21  1  0  0  0  0
 22 23  1  0  0  0  0
 24 25  1  0  0  0  0
 26 25  1  0  0  0  0
 26 28  1  0  0  0  0
 27 26  2  0  0  0  0
 28 29  1  0  0  0  0
 30 26  1  0  0  0  0
 31 30  1  0  0  0  0
M  END
>  <MODEL>
5

>  <REMARK>
 VINA RESULT:    -6.553      8.776     10.708
 INTER + INTRA:          -9.795
 INTER:                  -9.055
 INTRA:                  -0.740
 UNBOUND:                -0.944
  Name = 5GP
  8 active torsions:
  status: ('A' for Active; 'I' for Inactive)
    1  A    between atoms: P_1  and  O_3
    2  A    between atoms: P_1  and  O_4
    3  A    between atoms: P_1  and  O_5
    4  A    between atoms: O_5  and  C_6
    5  A    between atoms: C_6  and  C_7
    6  A    between atoms: C_9  and  O_10
    7  A    between atoms: C_11  and  O_12
    8  A    between atoms: C_13  and  N_14
                            x       y       z     vdW  Elec       q    Type
                         _______ _______ _______ _____ _____    ______ ____

>  <TORSDO>
F 8

$$$$
