5GP
 OpenBabel09132604103D

 31 33  0  0  1  0  0  0  0  0999 V2000
   33.1540   -3.7010   49.7280 C   0  0  1  0  0  3  0  0  0  0  0  0
   32.3840   -2.5310   49.9290 O   0  0  0  0  0  0  0  0  0  0  0  0
   32.3990   -4.9070   50.3050 C   0  0  2  0  0  3  0  0  0  0  0  0
   30.9670   -4.4260   50.2950 C   0  0  2  0  0  3  0  0  0  0  0  0
   31.1150   -2.9110   50.4250 C   0  0  2  0  0  3  0  0  0  0  0  0
   30.0580   -2.2230   49.6840 N   0  0  0  0  0  0  0  0  0  0  0  0
   29.1160   -2.7640   48.8650 C   0  0  0  0  0  3  0  0  0  0  0  0
   28.2080   -1.8550   48.4130 N   0  0  0  0  0  0  0  0  0  0  0  0
   28.6170   -0.7130   48.9970 C   0  0  0  0  0  0  0  0  0  0  0  0
   28.0630    0.5570   48.9330 C   0  0  0  0  0  0  0  0  0  0  0  0
   27.0400    0.7880   48.2340 O   0  0  0  0  0  0  0  0  0  0  0  0
   28.6600    1.5540   49.6560 N   0  0  0  0  0  0  0  0  0  0  0  0
   29.7700    1.3040   50.4290 C   0  0  0  0  0  0  0  0  0  0  0  0
   30.3730    2.3570   51.1810 N   0  0  0  0  0  0  0  0  0  0  0  0
   30.3030    0.0440   50.4850 N   0  0  0  0  0  0  0  0  0  0  0  0
   29.7100   -0.9330   49.7580 C   0  0  0  0  0  0  0  0  0  0  0  0
   28.2600    2.5190   49.6220 H   0  0  0  0  0  0  0  0  0  0  0  0
   31.2140    2.1690   51.7690 H   0  0  0  0  0  0  0  0  0  0  0  0
   29.9820    3.3240   51.1520 H   0  0  0  0  0  0  0  0  0  0  0  0
   32.8490   -5.2220   51.6040 O   0  0  0  0  0  0  0  0  0  0  0  0
   33.4550   -6.0070   51.5440 H   0  0  0  0  0  0  0  0  0  0  0  0
   30.1690   -5.0060   51.3000 O   0  0  0  0  0  0  0  0  0  0  0  0
   29.3060   -5.2900   50.9010 H   0  0  0  0  0  0  0  0  0  0  0  0
   33.4310   -3.8720   48.2290 C   0  0  0  0  0  2  0  0  0  0  0  0
   34.1990   -5.0350   48.0310 O   0  0  0  0  0  0  0  0  0  0  0  0
   35.8110   -4.5760   47.7120 P   0  0  0  0  0  0  0  0  0  0  0  0
   35.8320   -3.3460   46.8300 O   0  0  0  0  0  0  0  0  0  0  0  0
   36.6520   -5.8390   46.9590 O   0  0  0  0  0  0  0  0  0  0  0  0
   36.4090   -5.7780   46.0010 H   0  0  0  0  0  0  0  0  0  0  0  0
   36.5740   -4.2140   49.1780 O   0  0  0  0  0  0  0  0  0  0  0  0
   37.3800   -3.6990   48.9230 H   0  0  0  0  0  0  0  0  0  0  0  0
  1 24  1  6  0  0  0
  1  2  1  0  0  0  0
  1  3  1  0  0  0  0
  2  5  1  0  0  0  0
  3 20  1  1  0  0  0
  4  3  1  0  0  0  0
  4  5  1  0  0  0  0
  4 22  1  1  0  0  0
  5  6  1  6  0  0  0
  6 16  1  0  0  0  0
  7  6  1  0  0  0  0
  8  7  2  0  0  0  0
  8  9  1  0  0  0  0
  9 16  2  0  0  0  0
 10  9  1  0  0  0  0
 10 12  1  0  0  0  0
 11 10  2  0  0  0  0
 12 13  1  0  0  0  0
 13 15  2  0  0  0  0
 13 14  1  0  0  0  0
 14 18  1  0  0  0  0
 16 15  1  0  0  0  0
 17 12  1  0  0  0  0
 19 14  1  0  0  0  0
 21 20  1  0  0  0  0
 23 22  1  0  0  0  0
 25 24  1  0  0  0  0
 26 25  1  0  0  0  0
 26 30  1  0  0  0  0
 27 26  2  0  0  0  0
 28 26  1  0  0  0  0
 29 28  1  0  0  0  0
 31 30  1  0  0  0  0
M  END
>  <MODEL>
6

>  <REMARK>
 VINA RESULT:    -6.547      6.455      8.506
 INTER + INTRA:          -9.787
 INTER:                  -9.145
 INTRA:                  -0.642
 UNBOUND:                -0.944
  Name = 5GP
  8 active torsions:
  status: ('A' for Active; 'I' for Inactive)
    1  A    between atoms: P_1  and  O_3
    2  A    between atoms: P_1  and  O_4
    3  A    between atoms: P_1  and  O_5
    4  A    between atoms: O_5  and  C_6
    5  A    between atoms: C_6  and  C_7
    6  A    between atoms: C_9  and  O_10
    7  A    between atoms: C_11  and  O_12
    8  A    between atoms: C_13  and  N_14
                            x       y       z     vdW  Elec       q    Type
                         _______ _______ _______ _____ _____    ______ ____

>  <TORSDO>
F 8

$$$$
