5GP
 OpenBabel09132604103D

 31 33  0  0  1  0  0  0  0  0999 V2000
   24.5170   -3.7340   52.8550 C   0  0  1  0  0  3  0  0  0  0  0  0
   24.0920   -3.2930   51.5790 O   0  0  0  0  0  0  0  0  0  0  0  0
   26.0170   -3.4510   53.0120 C   0  0  2  0  0  3  0  0  0  0  0  0
   26.2400   -2.3330   52.0200 C   0  0  2  0  0  3  0  0  0  0  0  0
   25.1550   -2.5850   50.9740 C   0  0  2  0  0  3  0  0  0  0  0  0
   24.6690   -1.3200   50.4210 N   0  0  0  0  0  0  0  0  0  0  0  0
   23.6060   -0.5770   50.8310 C   0  0  0  0  0  3  0  0  0  0  0  0
   23.4890    0.6080   50.1670 N   0  0  0  0  0  0  0  0  0  0  0  0
   24.5390    0.5800   49.3250 C   0  0  0  0  0  0  0  0  0  0  0  0
   24.9600    1.5330   48.4090 C   0  0  0  0  0  0  0  0  0  0  0  0
   24.3220    2.6080   48.2470 O   0  0  0  0  0  0  0  0  0  0  0  0
   26.0930    1.2720   47.6870 N   0  0  0  0  0  0  0  0  0  0  0  0
   26.7980    0.1040   47.8680 C   0  0  0  0  0  0  0  0  0  0  0  0
   27.9810   -0.1460   47.1100 N   0  0  0  0  0  0  0  0  0  0  0  0
   26.3720   -0.8260   48.7790 N   0  0  0  0  0  0  0  0  0  0  0  0
   25.2440   -0.5610   49.4810 C   0  0  0  0  0  0  0  0  0  0  0  0
   26.4290    1.9750   46.9910 H   0  0  0  0  0  0  0  0  0  0  0  0
   28.5180   -1.0300   47.2460 H   0  0  0  0  0  0  0  0  0  0  0  0
   28.3230    0.5510   46.4110 H   0  0  0  0  0  0  0  0  0  0  0  0
   26.7890   -4.5930   52.7160 O   0  0  0  0  0  0  0  0  0  0  0  0
   26.2320   -5.2180   52.1830 H   0  0  0  0  0  0  0  0  0  0  0  0
   27.5450   -2.3020   51.4880 O   0  0  0  0  0  0  0  0  0  0  0  0
   27.6450   -3.0490   50.8430 H   0  0  0  0  0  0  0  0  0  0  0  0
   23.6910   -3.0240   53.9360 C   0  0  0  0  0  2  0  0  0  0  0  0
   24.4450   -2.9570   55.1230 O   0  0  0  0  0  0  0  0  0  0  0  0
   24.3830   -1.3580   55.7160 P   0  0  0  0  0  0  0  0  0  0  0  0
   24.5970   -1.3550   57.2140 O   0  0  0  0  0  0  0  0  0  0  0  0
   22.8930   -0.6430   55.3450 O   0  0  0  0  0  0  0  0  0  0  0  0
   22.2680   -0.9710   56.0410 H   0  0  0  0  0  0  0  0  0  0  0  0
   25.6130   -0.4580   54.9830 O   0  0  0  0  0  0  0  0  0  0  0  0
   26.0680    0.0060   55.7310 H   0  0  0  0  0  0  0  0  0  0  0  0
  1  3  1  0  0  0  0
  1 24  1  1  0  0  0
  2  1  1  0  0  0  0
  3 20  1  6  0  0  0
  4 22  1  6  0  0  0
  4  3  1  0  0  0  0
  5  6  1  1  0  0  0
  5  2  1  0  0  0  0
  5  4  1  0  0  0  0
  6  7  1  0  0  0  0
  8  7  2  0  0  0  0
  9 16  2  0  0  0  0
  9  8  1  0  0  0  0
 10  9  1  0  0  0  0
 11 10  2  0  0  0  0
 12 13  1  0  0  0  0
 12 10  1  0  0  0  0
 13 15  2  0  0  0  0
 14 18  1  0  0  0  0
 14 13  1  0  0  0  0
 15 16  1  0  0  0  0
 16  6  1  0  0  0  0
 17 12  1  0  0  0  0
 19 14  1  0  0  0  0
 21 20  1  0  0  0  0
 23 22  1  0  0  0  0
 24 25  1  0  0  0  0
 25 26  1  0  0  0  0
 26 27  2  0  0  0  0
 28 26  1  0  0  0  0
 28 29  1  0  0  0  0
 30 26  1  0  0  0  0
 30 31  1  0  0  0  0
M  END
>  <MODEL>
1

>  <REMARK>
 VINA RESULT:    -6.837      0.000      0.000
 INTER + INTRA:         -10.179
 INTER:                  -9.235
 INTRA:                  -0.944
 UNBOUND:                -0.944
  Name = 5GP
  8 active torsions:
  status: ('A' for Active; 'I' for Inactive)
    1  A    between atoms: P_1  and  O_3
    2  A    between atoms: P_1  and  O_4
    3  A    between atoms: P_1  and  O_5
    4  A    between atoms: O_5  and  C_6
    5  A    between atoms: C_6  and  C_7
    6  A    between atoms: C_9  and  O_10
    7  A    between atoms: C_11  and  O_12
    8  A    between atoms: C_13  and  N_14
                            x       y       z     vdW  Elec       q    Type
                         _______ _______ _______ _____ _____    ______ ____

>  <TORSDO>
F 8

$$$$
