5GP
 OpenBabel09132604103D

 31 33  0  0  1  0  0  0  0  0999 V2000
   24.0320   -4.5220   53.2170 C   0  0  1  0  0  3  0  0  0  0  0  0
   23.9470   -4.4580   51.8060 O   0  0  0  0  0  0  0  0  0  0  0  0
   25.4910   -4.7690   53.6240 C   0  0  2  0  0  3  0  0  0  0  0  0
   26.2520   -4.2590   52.4230 C   0  0  2  0  0  3  0  0  0  0  0  0
   25.2590   -4.4620   51.2790 C   0  0  2  0  0  3  0  0  0  0  0  0
   25.4040   -3.4060   50.2770 N   0  0  0  0  0  0  0  0  0  0  0  0
   25.8000   -3.5250   48.9810 C   0  0  0  0  0  3  0  0  0  0  0  0
   25.7240   -2.3560   48.2850 N   0  0  0  0  0  0  0  0  0  0  0  0
   25.2480   -1.4950   49.2040 C   0  0  0  0  0  0  0  0  0  0  0  0
   24.9340   -0.1500   49.0720 C   0  0  0  0  0  0  0  0  0  0  0  0
   25.1050    0.4550   47.9800 O   0  0  0  0  0  0  0  0  0  0  0  0
   24.4290    0.5000   50.1640 N   0  0  0  0  0  0  0  0  0  0  0  0
   24.2300   -0.1600   51.3550 C   0  0  0  0  0  0  0  0  0  0  0  0
   23.6960    0.5360   52.4810 N   0  0  0  0  0  0  0  0  0  0  0  0
   24.5420   -1.4880   51.4690 N   0  0  0  0  0  0  0  0  0  0  0  0
   25.0510   -2.1190   50.3840 C   0  0  0  0  0  0  0  0  0  0  0  0
   24.1850    1.5140   50.0890 H   0  0  0  0  0  0  0  0  0  0  0  0
   23.5430    0.0370   53.3850 H   0  0  0  0  0  0  0  0  0  0  0  0
   23.4510    1.5480   52.4150 H   0  0  0  0  0  0  0  0  0  0  0  0
   25.7310   -6.1370   53.8690 O   0  0  0  0  0  0  0  0  0  0  0  0
   25.1770   -6.4190   54.6440 H   0  0  0  0  0  0  0  0  0  0  0  0
   27.4890   -4.9030   52.2220 O   0  0  0  0  0  0  0  0  0  0  0  0
   27.5770   -5.6390   52.8810 H   0  0  0  0  0  0  0  0  0  0  0  0
   23.4910   -3.2170   53.8150 C   0  0  0  0  0  2  0  0  0  0  0  0
   23.9320   -3.1020   55.1470 O   0  0  0  0  0  0  0  0  0  0  0  0
   24.1300   -1.4470   55.5130 P   0  0  0  0  0  0  0  0  0  0  0  0
   24.4960   -1.2810   56.9720 O   0  0  0  0  0  0  0  0  0  0  0  0
   22.7090   -0.5880   55.1750 O   0  0  0  0  0  0  0  0  0  0  0  0
   21.9710   -1.1940   55.4400 H   0  0  0  0  0  0  0  0  0  0  0  0
   25.3800   -0.8240   54.5580 O   0  0  0  0  0  0  0  0  0  0  0  0
   25.7830   -0.1050   55.1070 H   0  0  0  0  0  0  0  0  0  0  0  0
  1  3  1  0  0  0  0
  1 24  1  1  0  0  0
  2  1  1  0  0  0  0
  3 20  1  6  0  0  0
  4 22  1  6  0  0  0
  4  3  1  0  0  0  0
  5  6  1  6  0  0  0
  5  2  1  0  0  0  0
  5  4  1  0  0  0  0
  6 16  1  0  0  0  0
  7  6  1  0  0  0  0
  8  7  2  0  0  0  0
  8  9  1  0  0  0  0
  9 16  2  0  0  0  0
 10  9  1  0  0  0  0
 10 12  1  0  0  0  0
 11 10  2  0  0  0  0
 12 13  1  0  0  0  0
 13 15  2  0  0  0  0
 13 14  1  0  0  0  0
 14 18  1  0  0  0  0
 16 15  1  0  0  0  0
 17 12  1  0  0  0  0
 19 14  1  0  0  0  0
 20 21  1  0  0  0  0
 22 23  1  0  0  0  0
 24 25  1  0  0  0  0
 25 26  1  0  0  0  0
 26 27  2  0  0  0  0
 28 29  1  0  0  0  0
 28 26  1  0  0  0  0
 30 31  1  0  0  0  0
 30 26  1  0  0  0  0
M  END
>  <MODEL>
10

>  <REMARK>
 VINA RESULT:    -6.411      1.562      2.648
 INTER + INTRA:          -9.603
 INTER:                  -8.569
 INTRA:                  -1.034
 UNBOUND:                -0.944
  Name = 5GP
  8 active torsions:
  status: ('A' for Active; 'I' for Inactive)
    1  A    between atoms: P_1  and  O_3
    2  A    between atoms: P_1  and  O_4
    3  A    between atoms: P_1  and  O_5
    4  A    between atoms: O_5  and  C_6
    5  A    between atoms: C_6  and  C_7
    6  A    between atoms: C_9  and  O_10
    7  A    between atoms: C_11  and  O_12
    8  A    between atoms: C_13  and  N_14
                            x       y       z     vdW  Elec       q    Type
                         _______ _______ _______ _____ _____    ______ ____

>  <TORSDO>
F 8

$$$$
