5GP
 OpenBabel09132604103D

 31 33  0  0  1  0  0  0  0  0999 V2000
   24.2500   -1.3610   52.5560 C   0  0  1  0  0  3  0  0  0  0  0  0
   25.5430   -0.8870   52.2300 O   0  0  0  0  0  0  0  0  0  0  0  0
   23.5320   -1.7930   51.2690 C   0  0  2  0  0  3  0  0  0  0  0  0
   24.6860   -2.0720   50.3350 C   0  0  2  0  0  3  0  0  0  0  0  0
   25.7830   -1.1480   50.8620 C   0  0  2  0  0  3  0  0  0  0  0  0
   27.1010   -1.7600   50.6880 N   0  0  0  0  0  0  0  0  0  0  0  0
   27.4010   -3.0750   50.5120 C   0  0  0  0  0  3  0  0  0  0  0  0
   28.7230   -3.2990   50.2730 N   0  0  0  0  0  0  0  0  0  0  0  0
   29.2420   -2.0570   50.2950 C   0  0  0  0  0  0  0  0  0  0  0  0
   30.5500   -1.6450   50.0860 C   0  0  0  0  0  0  0  0  0  0  0  0
   31.4670   -2.4780   49.8570 O   0  0  0  0  0  0  0  0  0  0  0  0
   30.8140   -0.3030   50.1320 N   0  0  0  0  0  0  0  0  0  0  0  0
   29.8130    0.6100   50.3710 C   0  0  0  0  0  0  0  0  0  0  0  0
   30.1090    2.0060   50.4080 N   0  0  0  0  0  0  0  0  0  0  0  0
   28.5270    0.1880   50.5720 N   0  0  0  0  0  0  0  0  0  0  0  0
   28.2780   -1.1430   50.5340 C   0  0  0  0  0  0  0  0  0  0  0  0
   31.7930    0.0310   49.9770 H   0  0  0  0  0  0  0  0  0  0  0  0
   29.3520    2.7010   50.5870 H   0  0  0  0  0  0  0  0  0  0  0  0
   31.0830    2.3490   50.2560 H   0  0  0  0  0  0  0  0  0  0  0  0
   22.6860   -0.7740   50.7860 O   0  0  0  0  0  0  0  0  0  0  0  0
   23.1360   -0.3300   50.0200 H   0  0  0  0  0  0  0  0  0  0  0  0
   24.3750   -1.8660   48.9760 O   0  0  0  0  0  0  0  0  0  0  0  0
   23.8890   -2.6610   48.6350 H   0  0  0  0  0  0  0  0  0  0  0  0
   24.3740   -2.5220   53.5510 C   0  0  0  0  0  2  0  0  0  0  0  0
   23.9840   -2.0770   54.8290 O   0  0  0  0  0  0  0  0  0  0  0  0
   25.3820   -1.6270   55.6980 P   0  0  0  0  0  0  0  0  0  0  0  0
   25.5070   -0.1190   55.7290 O   0  0  0  0  0  0  0  0  0  0  0  0
   26.7660   -2.3040   54.9920 O   0  0  0  0  0  0  0  0  0  0  0  0
   27.1610   -1.5770   54.4480 H   0  0  0  0  0  0  0  0  0  0  0  0
   25.2470   -2.2000   57.2830 O   0  0  0  0  0  0  0  0  0  0  0  0
   25.6500   -1.4910   57.8440 H   0  0  0  0  0  0  0  0  0  0  0  0
  1 24  1  1  0  0  0
  2  1  1  0  0  0  0
  3 20  1  6  0  0  0
  3  1  1  0  0  0  0
  4 22  1  6  0  0  0
  4  5  1  0  0  0  0
  4  3  1  0  0  0  0
  5  6  1  1  0  0  0
  5  2  1  0  0  0  0
  7  6  1  0  0  0  0
  8  9  1  0  0  0  0
  8  7  2  0  0  0  0
  9 16  2  0  0  0  0
 10 12  1  0  0  0  0
 10  9  1  0  0  0  0
 11 10  2  0  0  0  0
 12 13  1  0  0  0  0
 13 14  1  0  0  0  0
 13 15  2  0  0  0  0
 14 18  1  0  0  0  0
 16 15  1  0  0  0  0
 16  6  1  0  0  0  0
 17 12  1  0  0  0  0
 19 14  1  0  0  0  0
 21 20  1  0  0  0  0
 23 22  1  0  0  0  0
 24 25  1  0  0  0  0
 25 26  1  0  0  0  0
 26 27  2  0  0  0  0
 26 30  1  0  0  0  0
 28 26  1  0  0  0  0
 29 28  1  0  0  0  0
 30 31  1  0  0  0  0
M  END
>  <MODEL>
9

>  <REMARK>
 VINA RESULT:    -6.456      2.798      4.226
 INTER + INTRA:          -9.665
 INTER:                  -8.835
 INTRA:                  -0.830
 UNBOUND:                -0.944
  Name = 5GP
  8 active torsions:
  status: ('A' for Active; 'I' for Inactive)
    1  A    between atoms: P_1  and  O_3
    2  A    between atoms: P_1  and  O_4
    3  A    between atoms: P_1  and  O_5
    4  A    between atoms: O_5  and  C_6
    5  A    between atoms: C_6  and  C_7
    6  A    between atoms: C_9  and  O_10
    7  A    between atoms: C_11  and  O_12
    8  A    between atoms: C_13  and  N_14
                            x       y       z     vdW  Elec       q    Type
                         _______ _______ _______ _____ _____    ______ ____

>  <TORSDO>
F 8

$$$$
