PHE
 OpenBabel09132604103D

 15 15  0  0  1  0  0  0  0  0999 V2000
   29.3230   -6.0270   12.0410 C   0  0  2  0  0  3  0  0  0  0  0  0
   30.7670   -5.9830   11.7930 N   0  0  0  0  0  0  0  0  0  0  0  0
   31.2780   -5.9290   12.7050 H   0  0  0  0  0  0  0  0  0  0  0  0
   30.9900   -5.1130   11.2560 H   0  0  0  0  0  0  0  0  0  0  0  0
   28.9030   -4.9020   12.9500 C   0  0  0  0  0  0  0  0  0  0  0  0
   27.6840   -4.6040   13.0740 O   0  0  0  0  0  0  0  0  0  0  0  0
   29.8660   -4.1860   13.6540 O   0  0  0  0  0  0  0  0  0  0  0  0
   30.8420   -4.4520   13.6170 H   0  0  0  0  0  0  0  0  0  0  0  0
   28.9160   -7.3840   12.6420 C   0  0  0  0  0  2  0  0  0  0  0  0
   29.2710   -8.5210   11.7170 C   0  0  0  0  0  0  0  0  0  0  0  0
   30.1110   -9.5570   12.1600 C   0  0  0  0  0  3  0  0  0  0  0  0
   28.7280   -8.5820   10.4230 C   0  0  0  0  0  3  0  0  0  0  0  0
   30.4180  -10.6260   11.3120 C   0  0  0  0  0  3  0  0  0  0  0  0
   29.0380   -9.6530    9.5780 C   0  0  0  0  0  3  0  0  0  0  0  0
   29.8830  -10.6730   10.0220 C   0  0  0  0  0  3  0  0  0  0  0  0
  1  9  1  1  0  0  0
  1  5  1  0  0  0  0
  2  1  1  0  0  0  0
  2  3  1  0  0  0  0
  4  2  1  0  0  0  0
  5  6  2  0  0  0  0
  5  7  1  0  0  0  0
  8  7  1  0  0  0  0
 10 11  1  0  0  0  0
 10  9  1  0  0  0  0
 12 10  2  0  0  0  0
 13 11  2  0  0  0  0
 14 15  2  0  0  0  0
 14 12  1  0  0  0  0
 15 13  1  0  0  0  0
M  END
>  <MODEL>
16

>  <REMARK>
 VINA RESULT:    -4.502     11.549     12.849
 INTER + INTRA:          -5.724
 INTER:                  -5.573
 INTRA:                  -0.152
 UNBOUND:                -0.169
  Name = PHE
  5 active torsions:
  status: ('A' for Active; 'I' for Inactive)
    1  A    between atoms: N_1  and  CA_2
    2  A    between atoms: CA_2  and  C_3
    3  A    between atoms: CA_2  and  CB_5
    4  A    between atoms: C_3  and  OXT_12
    5  A    between atoms: CB_5  and  CG_6
                            x       y       z     vdW  Elec       q    Type
                         _______ _______ _______ _____ _____    ______ ____

>  <TORSDO>
F 5

$$$$
