PHE
 OpenBabel09132604103D

 15 15  0  0  1  0  0  0  0  0999 V2000
   36.4690    0.2640    5.2330 C   0  0  2  0  0  3  0  0  0  0  0  0
   37.0390   -0.8660    4.4950 N   0  0  0  0  0  0  0  0  0  0  0  0
   36.9040   -1.7470    5.0430 H   0  0  0  0  0  0  0  0  0  0  0  0
   38.0690   -0.7160    4.3920 H   0  0  0  0  0  0  0  0  0  0  0  0
   35.6020    1.1060    4.3350 C   0  0  0  0  0  0  0  0  0  0  0  0
   35.8960    2.3120    4.1100 O   0  0  0  0  0  0  0  0  0  0  0  0
   34.4670    0.5510    3.7510 O   0  0  0  0  0  0  0  0  0  0  0  0
   34.2950    0.6440    2.7580 H   0  0  0  0  0  0  0  0  0  0  0  0
   37.5840    1.1200    5.8610 C   0  0  0  0  0  2  0  0  0  0  0  0
   37.2880    1.4320    7.3060 C   0  0  0  0  0  0  0  0  0  0  0  0
   37.8870    2.5410    7.9270 C   0  0  0  0  0  3  0  0  0  0  0  0
   36.3760    0.6470    8.0310 C   0  0  0  0  0  3  0  0  0  0  0  0
   37.5920    2.8480    9.2590 C   0  0  0  0  0  3  0  0  0  0  0  0
   36.0830    0.9570    9.3630 C   0  0  0  0  0  3  0  0  0  0  0  0
   36.6920    2.0550    9.9770 C   0  0  0  0  0  3  0  0  0  0  0  0
  1  9  1  6  0  0  0
  2  3  1  0  0  0  0
  2  1  1  0  0  0  0
  4  2  1  0  0  0  0
  5  1  1  0  0  0  0
  6  5  2  0  0  0  0
  7  5  1  0  0  0  0
  8  7  1  0  0  0  0
  9 10  1  0  0  0  0
 10 11  2  0  0  0  0
 10 12  1  0  0  0  0
 11 13  1  0  0  0  0
 12 14  2  0  0  0  0
 13 15  2  0  0  0  0
 14 15  1  0  0  0  0
M  END
>  <MODEL>
5

>  <REMARK>
 VINA RESULT:    -4.979      1.188      2.073
 INTER + INTRA:          -6.313
 INTER:                  -6.105
 INTRA:                  -0.208
 UNBOUND:                -0.169
  Name = PHE
  5 active torsions:
  status: ('A' for Active; 'I' for Inactive)
    1  A    between atoms: N_1  and  CA_2
    2  A    between atoms: CA_2  and  C_3
    3  A    between atoms: CA_2  and  CB_5
    4  A    between atoms: C_3  and  OXT_12
    5  A    between atoms: CB_5  and  CG_6
                            x       y       z     vdW  Elec       q    Type
                         _______ _______ _______ _____ _____    ______ ____

>  <TORSDO>
F 5

$$$$
