PHE
 OpenBabel09132604103D

 15 15  0  0  1  0  0  0  0  0999 V2000
   35.5700   -0.5250    5.6180 C   0  0  2  0  0  3  0  0  0  0  0  0
   35.4590   -1.9660    5.8600 N   0  0  0  0  0  0  0  0  0  0  0  0
   35.7860   -2.1860    6.8290 H   0  0  0  0  0  0  0  0  0  0  0  0
   36.0910   -2.4680    5.1930 H   0  0  0  0  0  0  0  0  0  0  0  0
   35.1240   -0.1800    4.2220 C   0  0  0  0  0  0  0  0  0  0  0  0
   34.7880    1.0000    3.9320 O   0  0  0  0  0  0  0  0  0  0  0  0
   35.0810   -1.1720    3.2470 O   0  0  0  0  0  0  0  0  0  0  0  0
   34.9400   -0.9360    2.2720 H   0  0  0  0  0  0  0  0  0  0  0  0
   37.0130   -0.0440    5.8570 C   0  0  0  0  0  2  0  0  0  0  0  0
   37.0980    0.8600    7.0610 C   0  0  0  0  0  0  0  0  0  0  0  0
   38.0080    1.9310    7.0780 C   0  0  0  0  0  3  0  0  0  0  0  0
   36.2390    0.6690    8.1560 C   0  0  0  0  0  3  0  0  0  0  0  0
   38.0680    2.7860    8.1830 C   0  0  0  0  0  3  0  0  0  0  0  0
   36.3030    1.5270    9.2590 C   0  0  0  0  0  3  0  0  0  0  0  0
   37.2170    2.5830    9.2730 C   0  0  0  0  0  3  0  0  0  0  0  0
  1  9  1  6  0  0  0
  1  2  1  0  0  0  0
  2  3  1  0  0  0  0
  4  2  1  0  0  0  0
  5  1  1  0  0  0  0
  6  5  2  0  0  0  0
  7  5  1  0  0  0  0
  8  7  1  0  0  0  0
  9 10  1  0  0  0  0
 10 11  2  0  0  0  0
 10 12  1  0  0  0  0
 11 13  1  0  0  0  0
 12 14  2  0  0  0  0
 13 15  2  0  0  0  0
 14 15  1  0  0  0  0
M  END
>  <MODEL>
2

>  <REMARK>
 VINA RESULT:    -5.134      0.107      1.686
 INTER + INTRA:          -6.504
 INTER:                  -6.339
 INTRA:                  -0.165
 UNBOUND:                -0.169
  Name = PHE
  5 active torsions:
  status: ('A' for Active; 'I' for Inactive)
    1  A    between atoms: N_1  and  CA_2
    2  A    between atoms: CA_2  and  C_3
    3  A    between atoms: CA_2  and  CB_5
    4  A    between atoms: C_3  and  OXT_12
    5  A    between atoms: CB_5  and  CG_6
                            x       y       z     vdW  Elec       q    Type
                         _______ _______ _______ _____ _____    ______ ____

>  <TORSDO>
F 5

$$$$
