PHE
 OpenBabel09132604103D

 15 15  0  0  1  0  0  0  0  0999 V2000
   38.2230    2.3360    5.0500 C   0  0  2  0  0  3  0  0  0  0  0  0
   39.2340    1.5950    4.2910 N   0  0  0  0  0  0  0  0  0  0  0  0
   39.6870    2.2310    3.5960 H   0  0  0  0  0  0  0  0  0  0  0  0
   38.7580    0.8320    3.7550 H   0  0  0  0  0  0  0  0  0  0  0  0
   37.7680    3.5520    4.2890 C   0  0  0  0  0  0  0  0  0  0  0  0
   38.4640    4.6040    4.2910 O   0  0  0  0  0  0  0  0  0  0  0  0
   36.5710    3.5160    3.5800 O   0  0  0  0  0  0  0  0  0  0  0  0
   36.3080    4.2770    2.9650 H   0  0  0  0  0  0  0  0  0  0  0  0
   38.7690    2.7400    6.4320 C   0  0  0  0  0  2  0  0  0  0  0  0
   37.8690    2.2550    7.5400 C   0  0  0  0  0  0  0  0  0  0  0  0
   37.0830    1.1040    7.3610 C   0  0  0  0  0  3  0  0  0  0  0  0
   37.8430    2.9200    8.7780 C   0  0  0  0  0  3  0  0  0  0  0  0
   36.2690    0.6380    8.3990 C   0  0  0  0  0  3  0  0  0  0  0  0
   37.0270    2.4510    9.8130 C   0  0  0  0  0  3  0  0  0  0  0  0
   36.2410    1.3120    9.6230 C   0  0  0  0  0  3  0  0  0  0  0  0
  1  9  1  1  0  0  0
  2  1  1  0  0  0  0
  3  2  1  0  0  0  0
  4  2  1  0  0  0  0
  5  6  2  0  0  0  0
  5  1  1  0  0  0  0
  7  5  1  0  0  0  0
  8  7  1  0  0  0  0
  9 10  1  0  0  0  0
 10 12  1  0  0  0  0
 11 10  2  0  0  0  0
 11 13  1  0  0  0  0
 12 14  2  0  0  0  0
 13 15  2  0  0  0  0
 15 14  1  0  0  0  0
M  END
>  <MODEL>
11

>  <REMARK>
 VINA RESULT:    -4.750      2.804      3.581
 INTER + INTRA:          -6.030
 INTER:                  -5.847
 INTRA:                  -0.183
 UNBOUND:                -0.169
  Name = PHE
  5 active torsions:
  status: ('A' for Active; 'I' for Inactive)
    1  A    between atoms: N_1  and  CA_2
    2  A    between atoms: CA_2  and  C_3
    3  A    between atoms: CA_2  and  CB_5
    4  A    between atoms: C_3  and  OXT_12
    5  A    between atoms: CB_5  and  CG_6
                            x       y       z     vdW  Elec       q    Type
                         _______ _______ _______ _____ _____    ______ ____

>  <TORSDO>
F 5

$$$$
