PHE
 OpenBabel09132604103D

 15 15  0  0  1  0  0  0  0  0999 V2000
   37.1530    2.0730    8.8950 C   0  0  2  0  0  3  0  0  0  0  0  0
   37.4280    3.1920    9.8000 N   0  0  0  0  0  0  0  0  0  0  0  0
   36.6420    3.2930   10.4830 H   0  0  0  0  0  0  0  0  0  0  0  0
   37.4730    4.0750    9.2400 H   0  0  0  0  0  0  0  0  0  0  0  0
   36.9670    0.7950    9.6670 C   0  0  0  0  0  0  0  0  0  0  0  0
   36.8320    0.8190   10.9210 O   0  0  0  0  0  0  0  0  0  0  0  0
   36.9480   -0.4230    8.9930 O   0  0  0  0  0  0  0  0  0  0  0  0
   36.4330   -0.5300    8.1270 H   0  0  0  0  0  0  0  0  0  0  0  0
   38.2850    1.9190    7.8630 C   0  0  0  0  0  2  0  0  0  0  0  0
   37.7790    2.1330    6.4580 C   0  0  0  0  0  0  0  0  0  0  0  0
   38.4300    3.0360    5.6010 C   0  0  0  0  0  3  0  0  0  0  0  0
   36.6820    1.3970    5.9770 C   0  0  0  0  0  3  0  0  0  0  0  0
   37.9790    3.2140    4.2900 C   0  0  0  0  0  3  0  0  0  0  0  0
   36.2340    1.5790    4.6650 C   0  0  0  0  0  3  0  0  0  0  0  0
   36.8800    2.4870    3.8230 C   0  0  0  0  0  3  0  0  0  0  0  0
  1  9  1  6  0  0  0
  1  5  1  0  0  0  0
  1  2  1  0  0  0  0
  2  3  1  0  0  0  0
  4  2  1  0  0  0  0
  5  6  2  0  0  0  0
  7  5  1  0  0  0  0
  8  7  1  0  0  0  0
 10  9  1  0  0  0  0
 11 10  2  0  0  0  0
 12 10  1  0  0  0  0
 13 11  1  0  0  0  0
 14 12  2  0  0  0  0
 15 13  2  0  0  0  0
 15 14  1  0  0  0  0
M  END
>  <MODEL>
4

>  <REMARK>
 VINA RESULT:    -4.993      3.708      5.038
 INTER + INTRA:          -6.330
 INTER:                  -6.129
 INTRA:                  -0.200
 UNBOUND:                -0.169
  Name = PHE
  5 active torsions:
  status: ('A' for Active; 'I' for Inactive)
    1  A    between atoms: N_1  and  CA_2
    2  A    between atoms: CA_2  and  C_3
    3  A    between atoms: CA_2  and  CB_5
    4  A    between atoms: C_3  and  OXT_12
    5  A    between atoms: CB_5  and  CG_6
                            x       y       z     vdW  Elec       q    Type
                         _______ _______ _______ _____ _____    ______ ____

>  <TORSDO>
F 5

$$$$
