PHE
 OpenBabel09132604103D

 15 15  0  0  1  0  0  0  0  0999 V2000
   35.8770    1.4760    4.7100 C   0  0  2  0  0  3  0  0  0  0  0  0
   34.9070    0.6890    3.9440 N   0  0  0  0  0  0  0  0  0  0  0  0
   35.1490   -0.3270    4.0090 H   0  0  0  0  0  0  0  0  0  0  0  0
   34.9720    0.9630    2.9360 H   0  0  0  0  0  0  0  0  0  0  0  0
   36.7650    2.2710    3.7910 C   0  0  0  0  0  0  0  0  0  0  0  0
   37.7620    1.7280    3.2390 O   0  0  0  0  0  0  0  0  0  0  0  0
   36.4870    3.6130    3.5500 O   0  0  0  0  0  0  0  0  0  0  0  0
   37.1290    4.3380    3.8450 H   0  0  0  0  0  0  0  0  0  0  0  0
   36.7210    0.5630    5.6180 C   0  0  0  0  0  2  0  0  0  0  0  0
   36.9170    1.1760    6.9820 C   0  0  0  0  0  0  0  0  0  0  0  0
   37.8720    2.1890    7.1710 C   0  0  0  0  0  3  0  0  0  0  0  0
   36.1160    0.7750    8.0640 C   0  0  0  0  0  3  0  0  0  0  0  0
   38.0360    2.7770    8.4290 C   0  0  0  0  0  3  0  0  0  0  0  0
   36.2830    1.3660    9.3210 C   0  0  0  0  0  3  0  0  0  0  0  0
   37.2430    2.3650    9.5030 C   0  0  0  0  0  3  0  0  0  0  0  0
  1  9  1  6  0  0  0
  2  3  1  0  0  0  0
  2  1  1  0  0  0  0
  4  2  1  0  0  0  0
  5  1  1  0  0  0  0
  6  5  2  0  0  0  0
  7  5  1  0  0  0  0
  7  8  1  0  0  0  0
  9 10  1  0  0  0  0
 10 11  2  0  0  0  0
 10 12  1  0  0  0  0
 11 13  1  0  0  0  0
 12 14  2  0  0  0  0
 13 15  2  0  0  0  0
 14 15  1  0  0  0  0
M  END
>  <MODEL>
12

>  <REMARK>
 VINA RESULT:    -4.693      1.972      2.544
 INTER + INTRA:          -5.960
 INTER:                  -5.823
 INTRA:                  -0.137
 UNBOUND:                -0.169
  Name = PHE
  5 active torsions:
  status: ('A' for Active; 'I' for Inactive)
    1  A    between atoms: N_1  and  CA_2
    2  A    between atoms: CA_2  and  C_3
    3  A    between atoms: CA_2  and  CB_5
    4  A    between atoms: C_3  and  OXT_12
    5  A    between atoms: CB_5  and  CG_6
                            x       y       z     vdW  Elec       q    Type
                         _______ _______ _______ _____ _____    ______ ____

>  <TORSDO>
F 5

$$$$
