PHE
 OpenBabel09132604103D

 15 15  0  0  1  0  0  0  0  0999 V2000
   36.7150    0.5440    5.0770 C   0  0  2  0  0  3  0  0  0  0  0  0
   35.4420    0.4420    4.3590 N   0  0  0  0  0  0  0  0  0  0  0  0
   34.6610    0.3180    5.0440 H   0  0  0  0  0  0  0  0  0  0  0  0
   35.4650   -0.4100    3.7510 H   0  0  0  0  0  0  0  0  0  0  0  0
   37.8210   -0.1190    4.3000 C   0  0  0  0  0  0  0  0  0  0  0  0
   39.0280    0.1210    4.5760 O   0  0  0  0  0  0  0  0  0  0  0  0
   37.5090   -1.0010    3.2700 O   0  0  0  0  0  0  0  0  0  0  0  0
   37.4280   -0.6750    2.3140 H   0  0  0  0  0  0  0  0  0  0  0  0
   36.5970   -0.0760    6.4810 C   0  0  0  0  0  2  0  0  0  0  0  0
   36.8440    0.9510    7.5570 C   0  0  0  0  0  0  0  0  0  0  0  0
   36.1280    0.8970    8.7650 C   0  0  0  0  0  3  0  0  0  0  0  0
   37.8230    1.9440    7.3820 C   0  0  0  0  0  3  0  0  0  0  0  0
   36.3760    1.8330    9.7740 C   0  0  0  0  0  3  0  0  0  0  0  0
   38.0680    2.8780    8.3940 C   0  0  0  0  0  3  0  0  0  0  0  0
   37.3440    2.8230    9.5870 C   0  0  0  0  0  3  0  0  0  0  0  0
  1  9  1  1  0  0  0
  2  3  1  0  0  0  0
  2  1  1  0  0  0  0
  4  2  1  0  0  0  0
  5  6  2  0  0  0  0
  5  1  1  0  0  0  0
  7  5  1  0  0  0  0
  8  7  1  0  0  0  0
  9 10  1  0  0  0  0
 10 11  1  0  0  0  0
 11 13  2  0  0  0  0
 12 10  2  0  0  0  0
 12 14  1  0  0  0  0
 14 15  2  0  0  0  0
 15 13  1  0  0  0  0
M  END
>  <MODEL>
14

>  <REMARK>
 VINA RESULT:    -4.621      1.843      2.091
 INTER + INTRA:          -5.870
 INTER:                  -5.669
 INTRA:                  -0.202
 UNBOUND:                -0.169
  Name = PHE
  5 active torsions:
  status: ('A' for Active; 'I' for Inactive)
    1  A    between atoms: N_1  and  CA_2
    2  A    between atoms: CA_2  and  C_3
    3  A    between atoms: CA_2  and  CB_5
    4  A    between atoms: C_3  and  OXT_12
    5  A    between atoms: CB_5  and  CG_6
                            x       y       z     vdW  Elec       q    Type
                         _______ _______ _______ _____ _____    ______ ____

>  <TORSDO>
F 5

$$$$
