PHE
 OpenBabel09132604103D

 15 15  0  0  1  0  0  0  0  0999 V2000
   28.3860   -5.3960    1.7500 C   0  0  2  0  0  3  0  0  0  0  0  0
   28.6700   -4.3880    2.7750 N   0  0  0  0  0  0  0  0  0  0  0  0
   29.1890   -4.8310    3.5690 H   0  0  0  0  0  0  0  0  0  0  0  0
   27.7630   -4.0290    3.1550 H   0  0  0  0  0  0  0  0  0  0  0  0
   27.0900   -6.1040    2.0420 C   0  0  0  0  0  0  0  0  0  0  0  0
   26.5570   -6.0170    3.1810 O   0  0  0  0  0  0  0  0  0  0  0  0
   26.4780   -6.8620    1.0480 O   0  0  0  0  0  0  0  0  0  0  0  0
   26.5360   -7.8730    1.0550 H   0  0  0  0  0  0  0  0  0  0  0  0
   29.5420   -6.4080    1.6490 C   0  0  0  0  0  2  0  0  0  0  0  0
   29.9980   -6.5790    0.2220 C   0  0  0  0  0  0  0  0  0  0  0  0
   30.9740   -5.7230   -0.3160 C   0  0  0  0  0  3  0  0  0  0  0  0
   29.4870   -7.6220   -0.5690 C   0  0  0  0  0  3  0  0  0  0  0  0
   31.4180   -5.8980   -1.6310 C   0  0  0  0  0  3  0  0  0  0  0  0
   29.9330   -7.7940   -1.8830 C   0  0  0  0  0  3  0  0  0  0  0  0
   30.8960   -6.9320   -2.4140 C   0  0  0  0  0  3  0  0  0  0  0  0
  1  9  1  1  0  0  0
  1  5  1  0  0  0  0
  1  2  1  0  0  0  0
  2  4  1  0  0  0  0
  2  3  1  0  0  0  0
  5  6  2  0  0  0  0
  7  8  1  0  0  0  0
  7  5  1  0  0  0  0
 10  9  1  0  0  0  0
 11 10  1  0  0  0  0
 12 10  2  0  0  0  0
 13 11  2  0  0  0  0
 14 12  1  0  0  0  0
 15 14  2  0  0  0  0
 15 13  1  0  0  0  0
M  END
>  <MODEL>
17

>  <REMARK>
 VINA RESULT:    -4.496     11.268     12.441
 INTER + INTRA:          -5.717
 INTER:                  -5.518
 INTRA:                  -0.198
 UNBOUND:                -0.169
  Name = PHE
  5 active torsions:
  status: ('A' for Active; 'I' for Inactive)
    1  A    between atoms: N_1  and  CA_2
    2  A    between atoms: CA_2  and  C_3
    3  A    between atoms: CA_2  and  CB_5
    4  A    between atoms: C_3  and  OXT_12
    5  A    between atoms: CB_5  and  CG_6
                            x       y       z     vdW  Elec       q    Type
                         _______ _______ _______ _____ _____    ______ ____

>  <TORSDO>
F 5

$$$$
