PHE
 OpenBabel09132604103D

 15 15  0  0  1  0  0  0  0  0999 V2000
   37.1230    0.9370    8.8700 C   0  0  2  0  0  3  0  0  0  0  0  0
   37.1250   -0.5290    8.8940 N   0  0  0  0  0  0  0  0  0  0  0  0
   36.3440   -0.8710    9.5010 H   0  0  0  0  0  0  0  0  0  0  0  0
   38.0220   -0.8570    9.3220 H   0  0  0  0  0  0  0  0  0  0  0  0
   36.5330    1.4920   10.1380 C   0  0  0  0  0  0  0  0  0  0  0  0
   35.8150    2.5280   10.1090 O   0  0  0  0  0  0  0  0  0  0  0  0
   36.7840    0.8580   11.3520 O   0  0  0  0  0  0  0  0  0  0  0  0
   37.1310    1.3800   12.1480 H   0  0  0  0  0  0  0  0  0  0  0  0
   36.3520    1.4580    7.6440 C   0  0  0  0  0  2  0  0  0  0  0  0
   36.8140    0.7840    6.3770 C   0  0  0  0  0  0  0  0  0  0  0  0
   38.0860    1.0650    5.8500 C   0  0  0  0  0  3  0  0  0  0  0  0
   35.9990   -0.1660    5.7380 C   0  0  0  0  0  3  0  0  0  0  0  0
   38.5270    0.4200    4.6900 C   0  0  0  0  0  3  0  0  0  0  0  0
   36.4440   -0.8090    4.5780 C   0  0  0  0  0  3  0  0  0  0  0  0
   37.7050   -0.5150    4.0540 C   0  0  0  0  0  3  0  0  0  0  0  0
  1  9  1  6  0  0  0
  1  2  1  0  0  0  0
  1  5  1  0  0  0  0
  2  4  1  0  0  0  0
  2  3  1  0  0  0  0
  5  7  1  0  0  0  0
  6  5  2  0  0  0  0
  7  8  1  0  0  0  0
 10  9  1  0  0  0  0
 11 10  1  0  0  0  0
 12 10  2  0  0  0  0
 13 11  2  0  0  0  0
 14 12  1  0  0  0  0
 15 14  2  0  0  0  0
 15 13  1  0  0  0  0
M  END
>  <MODEL>
10

>  <REMARK>
 VINA RESULT:    -4.756      3.302      5.031
 INTER + INTRA:          -6.037
 INTER:                  -5.983
 INTRA:                  -0.054
 UNBOUND:                -0.169
  Name = PHE
  5 active torsions:
  status: ('A' for Active; 'I' for Inactive)
    1  A    between atoms: N_1  and  CA_2
    2  A    between atoms: CA_2  and  C_3
    3  A    between atoms: CA_2  and  CB_5
    4  A    between atoms: C_3  and  OXT_12
    5  A    between atoms: CB_5  and  CG_6
                            x       y       z     vdW  Elec       q    Type
                         _______ _______ _______ _____ _____    ______ ____

>  <TORSDO>
F 5

$$$$
