PHE
 OpenBabel09132604103D

 15 15  0  0  1  0  0  0  0  0999 V2000
   28.1200   -5.6000   12.2650 C   0  0  2  0  0  3  0  0  0  0  0  0
   26.9000   -5.3480   11.4940 N   0  0  0  0  0  0  0  0  0  0  0  0
   26.5950   -6.2290   11.0200 H   0  0  0  0  0  0  0  0  0  0  0  0
   27.1130   -4.6470   10.7460 H   0  0  0  0  0  0  0  0  0  0  0  0
   28.5440   -4.3640   13.0130 C   0  0  0  0  0  0  0  0  0  0  0  0
   27.7660   -3.3770   13.1080 O   0  0  0  0  0  0  0  0  0  0  0  0
   29.8050   -4.3110   13.6010 O   0  0  0  0  0  0  0  0  0  0  0  0
   30.1370   -3.4630   14.0440 H   0  0  0  0  0  0  0  0  0  0  0  0
   29.2530   -6.0870   11.3440 C   0  0  0  0  0  2  0  0  0  0  0  0
   29.3140   -7.5930   11.2990 C   0  0  0  0  0  0  0  0  0  0  0  0
   28.6150   -8.3000   10.3050 C   0  0  0  0  0  3  0  0  0  0  0  0
   30.1060   -8.3010   12.2180 C   0  0  0  0  0  3  0  0  0  0  0  0
   28.6930   -9.6950   10.2460 C   0  0  0  0  0  3  0  0  0  0  0  0
   30.1810   -9.6960   12.1550 C   0  0  0  0  0  3  0  0  0  0  0  0
   29.4750  -10.3920   11.1710 C   0  0  0  0  0  3  0  0  0  0  0  0
  1  9  1  6  0  0  0
  1  5  1  0  0  0  0
  2  1  1  0  0  0  0
  3  2  1  0  0  0  0
  4  2  1  0  0  0  0
  5  6  2  0  0  0  0
  5  7  1  0  0  0  0
  7  8  1  0  0  0  0
 10  9  1  0  0  0  0
 10 12  1  0  0  0  0
 11 10  2  0  0  0  0
 13 11  1  0  0  0  0
 13 15  2  0  0  0  0
 14 12  2  0  0  0  0
 15 14  1  0  0  0  0
M  END
>  <MODEL>
18

>  <REMARK>
 VINA RESULT:    -4.419     11.505     12.722
 INTER + INTRA:          -5.622
 INTER:                  -5.468
 INTRA:                  -0.154
 UNBOUND:                -0.169
  Name = PHE
  5 active torsions:
  status: ('A' for Active; 'I' for Inactive)
    1  A    between atoms: N_1  and  CA_2
    2  A    between atoms: CA_2  and  C_3
    3  A    between atoms: CA_2  and  CB_5
    4  A    between atoms: C_3  and  OXT_12
    5  A    between atoms: CB_5  and  CG_6
                            x       y       z     vdW  Elec       q    Type
                         _______ _______ _______ _____ _____    ______ ____

>  <TORSDO>
F 5

$$$$
