PHE
 OpenBabel09132604103D

 15 15  0  0  1  0  0  0  0  0999 V2000
   28.5500   -4.9220   12.7830 C   0  0  2  0  0  3  0  0  0  0  0  0
   29.7240   -4.2950   13.3970 N   0  0  0  0  0  0  0  0  0  0  0  0
   30.4450   -5.0250   13.6030 H   0  0  0  0  0  0  0  0  0  0  0  0
   29.4390   -3.8690   14.3090 H   0  0  0  0  0  0  0  0  0  0  0  0
   27.3440   -4.0290   12.9000 C   0  0  0  0  0  0  0  0  0  0  0  0
   26.1880   -4.5250   12.9860 O   0  0  0  0  0  0  0  0  0  0  0  0
   27.5070   -2.6470   12.9100 O   0  0  0  0  0  0  0  0  0  0  0  0
   27.7740   -2.1610   13.7570 H   0  0  0  0  0  0  0  0  0  0  0  0
   28.2690   -6.2930   13.4250 C   0  0  0  0  0  2  0  0  0  0  0  0
   28.6900   -7.4210   12.5180 C   0  0  0  0  0  0  0  0  0  0  0  0
   29.3750   -8.5310   13.0400 C   0  0  0  0  0  3  0  0  0  0  0  0
   28.3620   -7.3960   11.1520 C   0  0  0  0  0  3  0  0  0  0  0  0
   29.7420   -9.5900   12.2040 C   0  0  0  0  0  3  0  0  0  0  0  0
   28.7310   -8.4570   10.3190 C   0  0  0  0  0  3  0  0  0  0  0  0
   29.4210   -9.5520   10.8450 C   0  0  0  0  0  3  0  0  0  0  0  0
  1  5  1  0  0  0  0
  1  2  1  0  0  0  0
  1  9  1  1  0  0  0
  2  3  1  0  0  0  0
  2  4  1  0  0  0  0
  5  7  1  0  0  0  0
  5  6  2  0  0  0  0
  7  8  1  0  0  0  0
 10 11  1  0  0  0  0
 10  9  1  0  0  0  0
 12 10  2  0  0  0  0
 13 11  2  0  0  0  0
 14 15  2  0  0  0  0
 14 12  1  0  0  0  0
 15 13  1  0  0  0  0
M  END
>  <MODEL>
15

>  <REMARK>
 VINA RESULT:    -4.583     11.741     12.882
 INTER + INTRA:          -5.824
 INTER:                  -5.627
 INTRA:                  -0.198
 UNBOUND:                -0.169
  Name = PHE
  5 active torsions:
  status: ('A' for Active; 'I' for Inactive)
    1  A    between atoms: N_1  and  CA_2
    2  A    between atoms: CA_2  and  C_3
    3  A    between atoms: CA_2  and  CB_5
    4  A    between atoms: C_3  and  OXT_12
    5  A    between atoms: CB_5  and  CG_6
                            x       y       z     vdW  Elec       q    Type
                         _______ _______ _______ _____ _____    ______ ____

>  <TORSDO>
F 5

$$$$
