ALL
     RDKit          3D

 12 12  0  0  1  0  0  0  0  0999 V2000
    5.3910   14.1680   18.8300 C   0  0  0  0  0  3  0  0  0  0  0  0
    5.2060   12.6550   19.0620 C   0  0  0  0  0  3  0  0  0  0  0  0
    6.5510   11.9840   19.4080 C   0  0  0  0  0  3  0  0  0  0  0  0
    7.6690   12.4400   18.4420 C   0  0  0  0  0  3  0  0  0  0  0  0
    7.6420   13.9780   18.2500 C   0  0  0  0  0  3  0  0  0  0  0  0
    6.3560   14.3930   17.8190 O   0  0  0  0  0  0  0  0  0  0  0  0
    4.1680   14.7140   18.4120 O   0  0  0  0  0  0  0  0  0  0  0  0
    4.2870   12.4270   20.1000 O   0  0  0  0  0  0  0  0  0  0  0  0
    6.9080   12.1930   20.7550 O   0  0  0  0  0  0  0  0  0  0  0  0
    8.9210   12.0340   18.9320 O   0  0  0  0  0  0  0  0  0  0  0  0
    8.6600   14.4250   17.1920 C   0  0  0  0  0  2  0  0  0  0  0  0
    8.0320   15.1910   16.2000 O   0  0  0  0  0  0  0  0  0  0  0  0
  1  7  1  0
  1  2  1  0
  2  3  1  0
  2  8  1  0
  3  9  1  0
  4 10  1  0
  4  3  1  0
  5 11  1  0
  5  4  1  0
  6  5  1  0
  6  1  1  0
 12 11  1  0
M  RAD  6   1   2   2   2   3   2   4   2   5   2  11   3
M  END
>  <MODEL>  (1) 
3

>  <REMARK>  (1) 
 VINA RESULT:    -4.948      1.467      3.414
 INTER + INTRA:          -6.008
 INTER:                  -5.961
 INTRA:                  -0.047
 UNBOUND:                -0.047
  Name = ALL
  6 active torsions:
  status: ('A' for Active; 'I' for Inactive)
    1  A    between atoms: C_1  and  O_7
    2  A    between atoms: C_2  and  O_8
    3  A    between atoms: C_3  and  O_9
    4  A    between atoms: C_4  and  O_10
    5  A    between atoms: C_5  and  C_6
    6  A    between atoms: C_6  and  O_12
                            x       y       z     vdW  Elec       q    Type
                         _______ _______ _______ _____ _____    ______ ____

>  <TORSDO>  (1) 
F 6

$$$$
