ALL
     RDKit          3D

 12 12  0  0  1  0  0  0  0  0999 V2000
    9.1150   11.3750   17.8570 C   0  0  0  0  0  3  0  0  0  0  0  0
    8.6450    9.9080   17.7960 C   0  0  0  0  0  3  0  0  0  0  0  0
    7.1050    9.8250   17.7610 C   0  0  0  0  0  3  0  0  0  0  0  0
    6.4710   10.7480   18.8260 C   0  0  0  0  0  3  0  0  0  0  0  0
    7.1320   12.1500   18.8100 C   0  0  0  0  0  3  0  0  0  0  0  0
    8.5360   12.0280   18.9720 O   0  0  0  0  0  0  0  0  0  0  0  0
   10.5100   11.3970   17.9990 O   0  0  0  0  0  0  0  0  0  0  0  0
    9.1760    9.2690   16.6630 O   0  0  0  0  0  0  0  0  0  0  0  0
    6.5970   10.0880   16.4730 O   0  0  0  0  0  0  0  0  0  0  0  0
    5.0890   10.8610   18.6000 O   0  0  0  0  0  0  0  0  0  0  0  0
    6.6020   13.0300   19.9510 C   0  0  0  0  0  2  0  0  0  0  0  0
    6.3560   12.2570   21.0930 O   0  0  0  0  0  0  0  0  0  0  0  0
  1  7  1  0
  1  6  1  0
  2  8  1  0
  2  1  1  0
  3  9  1  0
  3  2  1  0
  3  4  1  0
  4 10  1  0
  5  4  1  0
  5  6  1  0
  5 11  1  0
 11 12  1  0
M  RAD  6   1   2   2   2   3   2   4   2   5   2  11   3
M  END
>  <MODEL>  (1) 
20

>  <REMARK>  (1) 
 VINA RESULT:    -4.506      2.128      4.330
 INTER + INTRA:          -5.475
 INTER:                  -5.251
 INTRA:                  -0.224
 UNBOUND:                -0.047
  Name = ALL
  6 active torsions:
  status: ('A' for Active; 'I' for Inactive)
    1  A    between atoms: C_1  and  O_7
    2  A    between atoms: C_2  and  O_8
    3  A    between atoms: C_3  and  O_9
    4  A    between atoms: C_4  and  O_10
    5  A    between atoms: C_5  and  C_6
    6  A    between atoms: C_6  and  O_12
                            x       y       z     vdW  Elec       q    Type
                         _______ _______ _______ _____ _____    ______ ____

>  <TORSDO>  (1) 
F 6

$$$$
