ALL
     RDKit          3D

 12 12  0  0  1  0  0  0  0  0999 V2000
    7.1510   10.1740   17.4900 C   0  0  0  0  0  3  0  0  0  0  0  0
    8.6920   10.1660   17.5460 C   0  0  0  0  0  3  0  0  0  0  0  0
    9.1920   10.5740   18.9470 C   0  0  0  0  0  3  0  0  0  0  0  0
    8.4530   11.8310   19.4610 C   0  0  0  0  0  3  0  0  0  0  0  0
    6.9250   11.7070   19.2340 C   0  0  0  0  0  3  0  0  0  0  0  0
    6.6550   11.4470   17.8660 O   0  0  0  0  0  0  0  0  0  0  0  0
    6.7460    9.9060   16.1750 O   0  0  0  0  0  0  0  0  0  0  0  0
    9.1870    8.8910   17.2240 O   0  0  0  0  0  0  0  0  0  0  0  0
    9.1080    9.5080   19.8640 O   0  0  0  0  0  0  0  0  0  0  0  0
    8.7270   12.0240   20.8250 O   0  0  0  0  0  0  0  0  0  0  0  0
    6.1970   13.0030   19.6180 C   0  0  0  0  0  2  0  0  0  0  0  0
    5.8850   13.0050   20.9840 O   0  0  0  0  0  0  0  0  0  0  0  0
  1  7  1  0
  1  2  1  0
  1  6  1  0
  2  8  1  0
  2  3  1  0
  3  4  1  0
  3  9  1  0
  4 10  1  0
  5  4  1  0
  5 11  1  0
  6  5  1  0
 11 12  1  0
M  RAD  6   1   2   2   2   3   2   4   2   5   2  11   3
M  END
>  <MODEL>  (1) 
4

>  <REMARK>  (1) 
 VINA RESULT:    -4.917      2.100      4.207
 INTER + INTRA:          -5.970
 INTER:                  -5.730
 INTRA:                  -0.240
 UNBOUND:                -0.047
  Name = ALL
  6 active torsions:
  status: ('A' for Active; 'I' for Inactive)
    1  A    between atoms: C_1  and  O_7
    2  A    between atoms: C_2  and  O_8
    3  A    between atoms: C_3  and  O_9
    4  A    between atoms: C_4  and  O_10
    5  A    between atoms: C_5  and  C_6
    6  A    between atoms: C_6  and  O_12
                            x       y       z     vdW  Elec       q    Type
                         _______ _______ _______ _____ _____    ______ ____

>  <TORSDO>  (1) 
F 6

$$$$
