ALL
     RDKit          3D

 12 12  0  0  1  0  0  0  0  0999 V2000
    5.9270   12.2420   19.3500 C   0  0  0  0  0  3  0  0  0  0  0  0
    6.0870   10.9870   18.4690 C   0  0  0  0  0  3  0  0  0  0  0  0
    7.3500   10.1940   18.8650 C   0  0  0  0  0  3  0  0  0  0  0  0
    8.5700   11.1290   19.0270 C   0  0  0  0  0  3  0  0  0  0  0  0
    8.2000   12.3850   19.8570 C   0  0  0  0  0  3  0  0  0  0  0  0
    7.0900   13.0460   19.2710 O   0  0  0  0  0  0  0  0  0  0  0  0
    4.8350   12.9860   18.8840 O   0  0  0  0  0  0  0  0  0  0  0  0
    4.9580   10.1600   18.5840 O   0  0  0  0  0  0  0  0  0  0  0  0
    7.1350    9.4120   20.0170 O   0  0  0  0  0  0  0  0  0  0  0  0
    9.6270   10.4360   19.6410 O   0  0  0  0  0  0  0  0  0  0  0  0
    9.3660   13.3820   19.9100 C   0  0  0  0  0  2  0  0  0  0  0  0
   10.1020   13.2140   21.0900 O   0  0  0  0  0  0  0  0  0  0  0  0
  1  7  1  0
  2  8  1  0
  2  3  1  0
  2  1  1  0
  3  4  1  0
  3  9  1  0
  4 10  1  0
  4  5  1  0
  5 11  1  0
  6  1  1  0
  6  5  1  0
 11 12  1  0
M  RAD  6   1   2   2   2   3   2   4   2   5   2  11   3
M  END
>  <MODEL>  (1) 
13

>  <REMARK>  (1) 
 VINA RESULT:    -4.630      1.888      3.354
 INTER + INTRA:          -5.624
 INTER:                  -5.425
 INTRA:                  -0.199
 UNBOUND:                -0.047
  Name = ALL
  6 active torsions:
  status: ('A' for Active; 'I' for Inactive)
    1  A    between atoms: C_1  and  O_7
    2  A    between atoms: C_2  and  O_8
    3  A    between atoms: C_3  and  O_9
    4  A    between atoms: C_4  and  O_10
    5  A    between atoms: C_5  and  C_6
    6  A    between atoms: C_6  and  O_12
                            x       y       z     vdW  Elec       q    Type
                         _______ _______ _______ _____ _____    ______ ____

>  <TORSDO>  (1) 
F 6

$$$$
