ALL
     RDKit          3D

 12 12  0  0  1  0  0  0  0  0999 V2000
    5.8310    8.7870   16.0330 C   0  0  0  0  0  3  0  0  0  0  0  0
    4.6460    8.5970   17.0010 C   0  0  0  0  0  3  0  0  0  0  0  0
    5.0450    8.9850   18.4400 C   0  0  0  0  0  3  0  0  0  0  0  0
    6.4070    8.3670   18.8290 C   0  0  0  0  0  3  0  0  0  0  0  0
    7.4490    8.5660   17.7000 C   0  0  0  0  0  3  0  0  0  0  0  0
    6.9500    8.0430   16.4790 O   0  0  0  0  0  0  0  0  0  0  0  0
    5.4580    8.3200   14.7650 O   0  0  0  0  0  0  0  0  0  0  0  0
    3.5500    9.3740   16.5920 O   0  0  0  0  0  0  0  0  0  0  0  0
    5.0320   10.3810   18.6280 O   0  0  0  0  0  0  0  0  0  0  0  0
    6.8710    8.9430   20.0240 O   0  0  0  0  0  0  0  0  0  0  0  0
    8.7640    7.8410   18.0190 C   0  0  0  0  0  2  0  0  0  0  0  0
    9.3750    8.4070   19.1460 O   0  0  0  0  0  0  0  0  0  0  0  0
  1  7  1  0
  1  6  1  0
  1  2  1  0
  2  8  1  0
  2  3  1  0
  3  9  1  0
  3  4  1  0
  4 10  1  0
  5 11  1  0
  5  4  1  0
  6  5  1  0
 11 12  1  0
M  RAD  6   1   2   2   2   3   2   4   2   5   2  11   3
M  END
>  <MODEL>  (1) 
17

>  <REMARK>  (1) 
 VINA RESULT:    -4.568      3.636      4.746
 INTER + INTRA:          -5.550
 INTER:                  -5.345
 INTRA:                  -0.206
 UNBOUND:                -0.047
  Name = ALL
  6 active torsions:
  status: ('A' for Active; 'I' for Inactive)
    1  A    between atoms: C_1  and  O_7
    2  A    between atoms: C_2  and  O_8
    3  A    between atoms: C_3  and  O_9
    4  A    between atoms: C_4  and  O_10
    5  A    between atoms: C_5  and  C_6
    6  A    between atoms: C_6  and  O_12
                            x       y       z     vdW  Elec       q    Type
                         _______ _______ _______ _____ _____    ______ ____

>  <TORSDO>  (1) 
F 6

$$$$
