ALL
     RDKit          3D

 12 12  0  0  1  0  0  0  0  0999 V2000
    9.6960   17.1080   13.6260 C   0  0  0  0  0  3  0  0  0  0  0  0
    9.1670   17.1090   15.0740 C   0  0  0  0  0  3  0  0  0  0  0  0
    8.9500   18.5500   15.5790 C   0  0  0  0  0  3  0  0  0  0  0  0
   10.1640   19.4480   15.2480 C   0  0  0  0  0  3  0  0  0  0  0  0
   10.6210   19.2440   13.7810 C   0  0  0  0  0  3  0  0  0  0  0  0
   10.8860   17.8710   13.5400 O   0  0  0  0  0  0  0  0  0  0  0  0
    9.9830   15.7870   13.2510 O   0  0  0  0  0  0  0  0  0  0  0  0
    7.9600   16.3960   15.1560 O   0  0  0  0  0  0  0  0  0  0  0  0
    7.7470   19.0980   15.0910 O   0  0  0  0  0  0  0  0  0  0  0  0
    9.8380   20.7960   15.4710 O   0  0  0  0  0  0  0  0  0  0  0  0
   11.9060   20.0300   13.4830 C   0  0  0  0  0  2  0  0  0  0  0  0
   11.6210   21.3920   13.3170 O   0  0  0  0  0  0  0  0  0  0  0  0
  1  7  1  0
  1  2  1  0
  2  8  1  0
  2  3  1  0
  3  9  1  0
  4 10  1  0
  4  3  1  0
  5 11  1  0
  5  4  1  0
  6  1  1  0
  6  5  1  0
 12 11  1  0
M  RAD  6   1   2   2   2   3   2   4   2   5   2  11   3
M  END
>  <MODEL>  (1) 
19

>  <REMARK>  (1) 
 VINA RESULT:    -4.536      6.820      9.088
 INTER + INTRA:          -5.512
 INTER:                  -5.271
 INTRA:                  -0.241
 UNBOUND:                -0.047
  Name = ALL
  6 active torsions:
  status: ('A' for Active; 'I' for Inactive)
    1  A    between atoms: C_1  and  O_7
    2  A    between atoms: C_2  and  O_8
    3  A    between atoms: C_3  and  O_9
    4  A    between atoms: C_4  and  O_10
    5  A    between atoms: C_5  and  C_6
    6  A    between atoms: C_6  and  O_12
                            x       y       z     vdW  Elec       q    Type
                         _______ _______ _______ _____ _____    ______ ____

>  <TORSDO>  (1) 
F 6

$$$$
