ALL
     RDKit          3D

 12 12  0  0  1  0  0  0  0  0999 V2000
    9.4480   13.1600   20.0790 C   0  0  0  0  0  3  0  0  0  0  0  0
    8.0560   13.5950   19.5780 C   0  0  0  0  0  3  0  0  0  0  0  0
    7.0380   12.4440   19.7150 C   0  0  0  0  0  3  0  0  0  0  0  0
    7.6200   11.1150   19.1800 C   0  0  0  0  0  3  0  0  0  0  0  0
    9.0600   10.8890   19.7070 C   0  0  0  0  0  3  0  0  0  0  0  0
    9.8770   12.0030   19.3830 O   0  0  0  0  0  0  0  0  0  0  0  0
   10.3600   14.1950   19.8330 O   0  0  0  0  0  0  0  0  0  0  0  0
    7.6020   14.7110   20.3000 O   0  0  0  0  0  0  0  0  0  0  0  0
    6.5710   12.3140   21.0380 O   0  0  0  0  0  0  0  0  0  0  0  0
    6.7930   10.0440   19.5560 O   0  0  0  0  0  0  0  0  0  0  0  0
    9.6950    9.6420   19.0760 C   0  0  0  0  0  2  0  0  0  0  0  0
    9.2370    8.4820   19.7140 O   0  0  0  0  0  0  0  0  0  0  0  0
  1  7  1  0
  2  3  1  0
  2  1  1  0
  2  8  1  0
  3  9  1  0
  4 10  1  0
  4  5  1  0
  4  3  1  0
  5 11  1  0
  6  5  1  0
  6  1  1  0
 11 12  1  0
M  RAD  6   1   2   2   2   3   2   4   2   5   2  11   3
M  END
>  <MODEL>  (1) 
9

>  <REMARK>  (1) 
 VINA RESULT:    -4.727      2.042      3.429
 INTER + INTRA:          -5.741
 INTER:                  -5.497
 INTRA:                  -0.244
 UNBOUND:                -0.047
  Name = ALL
  6 active torsions:
  status: ('A' for Active; 'I' for Inactive)
    1  A    between atoms: C_1  and  O_7
    2  A    between atoms: C_2  and  O_8
    3  A    between atoms: C_3  and  O_9
    4  A    between atoms: C_4  and  O_10
    5  A    between atoms: C_5  and  C_6
    6  A    between atoms: C_6  and  O_12
                            x       y       z     vdW  Elec       q    Type
                         _______ _______ _______ _____ _____    ______ ____

>  <TORSDO>  (1) 
F 6

$$$$
