ALL
     RDKit          3D

 12 12  0  0  1  0  0  0  0  0999 V2000
    5.2250   12.4370   19.1890 C   0  0  0  0  0  3  0  0  0  0  0  0
    5.9710   13.7870   19.1920 C   0  0  0  0  0  3  0  0  0  0  0  0
    7.1990   13.7370   18.2590 C   0  0  0  0  0  3  0  0  0  0  0  0
    8.0240   12.4500   18.4890 C   0  0  0  0  0  3  0  0  0  0  0  0
    7.1030   11.2060   18.5570 C   0  0  0  0  0  3  0  0  0  0  0  0
    6.1080   11.3900   19.5510 O   0  0  0  0  0  0  0  0  0  0  0  0
    4.1870   12.4940   20.1300 O   0  0  0  0  0  0  0  0  0  0  0  0
    5.1140   14.8220   18.7840 O   0  0  0  0  0  0  0  0  0  0  0  0
    6.8350   13.8890   16.9070 O   0  0  0  0  0  0  0  0  0  0  0  0
    8.9700   12.2970   17.4610 O   0  0  0  0  0  0  0  0  0  0  0  0
    7.8970    9.9420   18.9170 C   0  0  0  0  0  2  0  0  0  0  0  0
    7.2530    9.2320   19.9390 O   0  0  0  0  0  0  0  0  0  0  0  0
  1  2  1  0
  1  6  1  0
  1  7  1  0
  2  8  1  0
  3  9  1  0
  3  4  1  0
  3  2  1  0
  4 10  1  0
  4  5  1  0
  5 11  1  0
  5  6  1  0
 11 12  1  0
M  RAD  6   1   2   2   2   3   2   4   2   5   2  11   3
M  END
>  <MODEL>  (1) 
1

>  <REMARK>  (1) 
 VINA RESULT:    -5.115      0.000      0.000
 INTER + INTRA:          -6.208
 INTER:                  -6.161
 INTRA:                  -0.047
 UNBOUND:                -0.047
  Name = ALL
  6 active torsions:
  status: ('A' for Active; 'I' for Inactive)
    1  A    between atoms: C_1  and  O_7
    2  A    between atoms: C_2  and  O_8
    3  A    between atoms: C_3  and  O_9
    4  A    between atoms: C_4  and  O_10
    5  A    between atoms: C_5  and  C_6
    6  A    between atoms: C_6  and  O_12
                            x       y       z     vdW  Elec       q    Type
                         _______ _______ _______ _____ _____    ______ ____

>  <TORSDO>  (1) 
F 6

$$$$
