ALL
     RDKit          3D

 12 12  0  0  1  0  0  0  0  0999 V2000
    7.2080   13.6640   18.3640 C   0  0  0  0  0  3  0  0  0  0  0  0
    8.3010   12.6130   18.0840 C   0  0  0  0  0  3  0  0  0  0  0  0
    9.1900   12.4000   19.3270 C   0  0  0  0  0  3  0  0  0  0  0  0
    9.6210   13.7510   19.9440 C   0  0  0  0  0  3  0  0  0  0  0  0
    8.4160   14.7180   20.0590 C   0  0  0  0  0  3  0  0  0  0  0  0
    7.7970   14.8780   18.7930 O   0  0  0  0  0  0  0  0  0  0  0  0
    6.4980   13.9040   17.1790 O   0  0  0  0  0  0  0  0  0  0  0  0
    7.7200   11.3900   17.7080 O   0  0  0  0  0  0  0  0  0  0  0  0
    8.5680   11.5670   20.2780 O   0  0  0  0  0  0  0  0  0  0  0  0
   10.1960   13.5380   21.2080 O   0  0  0  0  0  0  0  0  0  0  0  0
    8.8580   16.1050   20.5460 C   0  0  0  0  0  2  0  0  0  0  0  0
    9.0570   16.0990   21.9330 O   0  0  0  0  0  0  0  0  0  0  0  0
  1  7  1  0
  1  6  1  0
  2  8  1  0
  2  1  1  0
  2  3  1  0
  3  4  1  0
  3  9  1  0
  4  5  1  0
  4 10  1  0
  5 11  1  0
  6  5  1  0
 11 12  1  0
M  RAD  6   1   2   2   2   3   2   4   2   5   2  11   3
M  END
>  <MODEL>  (1) 
11

>  <REMARK>  (1) 
 VINA RESULT:    -4.657      2.690      4.358
 INTER + INTRA:          -5.657
 INTER:                  -5.413
 INTRA:                  -0.244
 UNBOUND:                -0.047
  Name = ALL
  6 active torsions:
  status: ('A' for Active; 'I' for Inactive)
    1  A    between atoms: C_1  and  O_7
    2  A    between atoms: C_2  and  O_8
    3  A    between atoms: C_3  and  O_9
    4  A    between atoms: C_4  and  O_10
    5  A    between atoms: C_5  and  C_6
    6  A    between atoms: C_6  and  O_12
                            x       y       z     vdW  Elec       q    Type
                         _______ _______ _______ _____ _____    ______ ____

>  <TORSDO>  (1) 
F 6

$$$$
