ALL
     RDKit          3D

 12 12  0  0  1  0  0  0  0  0999 V2000
    8.7110   12.8120   19.8460 C   0  0  0  0  0  3  0  0  0  0  0  0
    7.6170   13.8820   19.6600 C   0  0  0  0  0  3  0  0  0  0  0  0
    6.2140   13.2410   19.6690 C   0  0  0  0  0  3  0  0  0  0  0  0
    6.1660   11.9880   18.7640 C   0  0  0  0  0  3  0  0  0  0  0  0
    7.3930   11.0750   19.0170 C   0  0  0  0  0  3  0  0  0  0  0  0
    8.5920   11.8130   18.8490 O   0  0  0  0  0  0  0  0  0  0  0  0
    9.9670   13.4230   19.7220 O   0  0  0  0  0  0  0  0  0  0  0  0
    7.6980   14.8480   20.6770 O   0  0  0  0  0  0  0  0  0  0  0  0
    5.7770   12.9570   20.9770 O   0  0  0  0  0  0  0  0  0  0  0  0
    4.9770   11.2760   18.9940 O   0  0  0  0  0  0  0  0  0  0  0  0
    7.4250    9.8980   18.0320 C   0  0  0  0  0  2  0  0  0  0  0  0
    6.8030   10.2490   16.8270 O   0  0  0  0  0  0  0  0  0  0  0  0
  1  7  1  0
  2  3  1  0
  2  1  1  0
  2  8  1  0
  3  9  1  0
  4 10  1  0
  4  5  1  0
  4  3  1  0
  5 11  1  0
  6  5  1  0
  6  1  1  0
 12 11  1  0
M  RAD  6   1   2   2   2   3   2   4   2   5   2  11   3
M  END
>  <MODEL>  (1) 
2

>  <REMARK>  (1) 
 VINA RESULT:    -4.949      1.928      3.218
 INTER + INTRA:          -6.009
 INTER:                  -5.761
 INTRA:                  -0.249
 UNBOUND:                -0.047
  Name = ALL
  6 active torsions:
  status: ('A' for Active; 'I' for Inactive)
    1  A    between atoms: C_1  and  O_7
    2  A    between atoms: C_2  and  O_8
    3  A    between atoms: C_3  and  O_9
    4  A    between atoms: C_4  and  O_10
    5  A    between atoms: C_5  and  C_6
    6  A    between atoms: C_6  and  O_12
                            x       y       z     vdW  Elec       q    Type
                         _______ _______ _______ _____ _____    ______ ____

>  <TORSDO>  (1) 
F 6

$$$$
