ALL
     RDKit          3D

 12 12  0  0  1  0  0  0  0  0999 V2000
    6.2750   19.8920   21.1910 C   0  0  0  0  0  3  0  0  0  0  0  0
    6.4890   21.1130   22.1080 C   0  0  0  0  0  3  0  0  0  0  0  0
    7.9060   21.1010   22.7170 C   0  0  0  0  0  3  0  0  0  0  0  0
    8.2650   19.7040   23.2720 C   0  0  0  0  0  3  0  0  0  0  0  0
    7.8910   18.5920   22.2590 C   0  0  0  0  0  3  0  0  0  0  0  0
    6.5210   18.6950   21.9060 O   0  0  0  0  0  0  0  0  0  0  0  0
    4.9440   19.8860   20.7500 O   0  0  0  0  0  0  0  0  0  0  0  0
    6.2970   22.3050   21.3900 O   0  0  0  0  0  0  0  0  0  0  0  0
    8.8720   21.5620   21.8010 O   0  0  0  0  0  0  0  0  0  0  0  0
    9.6360   19.6450   23.5730 O   0  0  0  0  0  0  0  0  0  0  0  0
    8.1190   17.1950   22.8540 C   0  0  0  0  0  2  0  0  0  0  0  0
    7.8720   16.2060   21.8930 O   0  0  0  0  0  0  0  0  0  0  0  0
  1  7  1  0
  1  6  1  0
  1  2  1  0
  2  8  1  0
  2  3  1  0
  3  9  1  0
  3  4  1  0
  4 10  1  0
  5 11  1  0
  5  4  1  0
  6  5  1  0
 12 11  1  0
M  RAD  6   1   2   2   2   3   2   4   2   5   2  11   3
M  END
>  <MODEL>  (1) 
14

>  <REMARK>  (1) 
 VINA RESULT:    -4.606      6.899      8.270
 INTER + INTRA:          -5.596
 INTER:                  -5.559
 INTRA:                  -0.037
 UNBOUND:                -0.047
  Name = ALL
  6 active torsions:
  status: ('A' for Active; 'I' for Inactive)
    1  A    between atoms: C_1  and  O_7
    2  A    between atoms: C_2  and  O_8
    3  A    between atoms: C_3  and  O_9
    4  A    between atoms: C_4  and  O_10
    5  A    between atoms: C_5  and  C_6
    6  A    between atoms: C_6  and  O_12
                            x       y       z     vdW  Elec       q    Type
                         _______ _______ _______ _____ _____    ______ ____

>  <TORSDO>  (1) 
F 6

$$$$
