ALL
     RDKit          3D

 12 12  0  0  1  0  0  0  0  0999 V2000
    7.2380   11.6330   19.3580 C   0  0  0  0  0  3  0  0  0  0  0  0
    5.9060   12.3850   19.5500 C   0  0  0  0  0  3  0  0  0  0  0  0
    6.0150   13.8370   19.0390 C   0  0  0  0  0  3  0  0  0  0  0  0
    7.3100   14.5120   19.5450 C   0  0  0  0  0  3  0  0  0  0  0  0
    8.5310   13.5750   19.3630 C   0  0  0  0  0  3  0  0  0  0  0  0
    8.2900   12.3310   20.0000 O   0  0  0  0  0  0  0  0  0  0  0  0
    7.1260   10.3610   19.9350 O   0  0  0  0  0  0  0  0  0  0  0  0
    4.8680   11.7250   18.8710 O   0  0  0  0  0  0  0  0  0  0  0  0
    5.9040   13.9060   17.6360 O   0  0  0  0  0  0  0  0  0  0  0  0
    7.5200   15.7200   18.8590 O   0  0  0  0  0  0  0  0  0  0  0  0
    9.7980   14.1830   19.9830 C   0  0  0  0  0  2  0  0  0  0  0  0
   10.1620   13.4810   21.1400 O   0  0  0  0  0  0  0  0  0  0  0  0
  1  2  1  0
  1  7  1  0
  1  6  1  0
  2  8  1  0
  3  9  1  0
  3  4  1  0
  3  2  1  0
  4 10  1  0
  5  4  1  0
  5 11  1  0
  5  6  1  0
 11 12  1  0
M  RAD  6   1   2   2   2   3   2   4   2   5   2  11   3
M  END
>  <MODEL>  (1) 
12

>  <REMARK>  (1) 
 VINA RESULT:    -4.635      2.000      3.158
 INTER + INTRA:          -5.631
 INTER:                  -5.583
 INTRA:                  -0.048
 UNBOUND:                -0.047
  Name = ALL
  6 active torsions:
  status: ('A' for Active; 'I' for Inactive)
    1  A    between atoms: C_1  and  O_7
    2  A    between atoms: C_2  and  O_8
    3  A    between atoms: C_3  and  O_9
    4  A    between atoms: C_4  and  O_10
    5  A    between atoms: C_5  and  C_6
    6  A    between atoms: C_6  and  O_12
                            x       y       z     vdW  Elec       q    Type
                         _______ _______ _______ _____ _____    ______ ____

>  <TORSDO>  (1) 
F 6

$$$$
