ALL
     RDKit          3D

 12 12  0  0  1  0  0  0  0  0999 V2000
    7.5910   14.3610   17.9990 C   0  0  0  0  0  3  0  0  0  0  0  0
    6.1120   14.0130   18.2600 C   0  0  0  0  0  3  0  0  0  0  0  0
    5.9890   12.8980   19.3190 C   0  0  0  0  0  3  0  0  0  0  0  0
    6.9680   11.7380   19.0260 C   0  0  0  0  0  3  0  0  0  0  0  0
    8.3810   12.2770   18.6880 C   0  0  0  0  0  3  0  0  0  0  0  0
    8.3060   13.2010   17.6140 O   0  0  0  0  0  0  0  0  0  0  0  0
    7.6580   15.2960   16.9560 O   0  0  0  0  0  0  0  0  0  0  0  0
    5.4090   15.1500   18.6920 O   0  0  0  0  0  0  0  0  0  0  0  0
    6.1490   13.3980   20.6260 O   0  0  0  0  0  0  0  0  0  0  0  0
    7.0310   10.8730   20.1320 O   0  0  0  0  0  0  0  0  0  0  0  0
    9.3250   11.1420   18.2670 C   0  0  0  0  0  2  0  0  0  0  0  0
    9.9040   10.5420   19.3920 O   0  0  0  0  0  0  0  0  0  0  0  0
  1  7  1  0
  1  2  1  0
  2  8  1  0
  2  3  1  0
  3  9  1  0
  4  3  1  0
  4 10  1  0
  5 11  1  0
  5  4  1  0
  6  1  1  0
  6  5  1  0
 11 12  1  0
M  RAD  6   1   2   2   2   3   2   4   2   5   2  11   3
M  END
>  <MODEL>  (1) 
8

>  <REMARK>  (1) 
 VINA RESULT:    -4.789      1.435      2.917
 INTER + INTRA:          -5.816
 INTER:                  -5.574
 INTRA:                  -0.243
 UNBOUND:                -0.047
  Name = ALL
  6 active torsions:
  status: ('A' for Active; 'I' for Inactive)
    1  A    between atoms: C_1  and  O_7
    2  A    between atoms: C_2  and  O_8
    3  A    between atoms: C_3  and  O_9
    4  A    between atoms: C_4  and  O_10
    5  A    between atoms: C_5  and  C_6
    6  A    between atoms: C_6  and  O_12
                            x       y       z     vdW  Elec       q    Type
                         _______ _______ _______ _____ _____    ______ ____

>  <TORSDO>  (1) 
F 6

$$$$
