ALL
     RDKit          3D

 12 12  0  0  1  0  0  0  0  0999 V2000
    7.7470   11.2750   18.0970 C   0  0  0  0  0  3  0  0  0  0  0  0
    9.0740   12.0210   18.3420 C   0  0  0  0  0  3  0  0  0  0  0  0
    8.9370   13.0130   19.5160 C   0  0  0  0  0  3  0  0  0  0  0  0
    7.6440   13.8510   19.3920 C   0  0  0  0  0  3  0  0  0  0  0  0
    6.4310   12.9510   19.0470 C   0  0  0  0  0  3  0  0  0  0  0  0
    6.7000   12.2010   17.8730 O   0  0  0  0  0  0  0  0  0  0  0  0
    7.8860   10.4690   16.9580 O   0  0  0  0  0  0  0  0  0  0  0  0
   10.1060   11.1090   18.6170 O   0  0  0  0  0  0  0  0  0  0  0  0
    9.0200   12.3630   20.7620 O   0  0  0  0  0  0  0  0  0  0  0  0
    7.4060   14.5450   20.5900 O   0  0  0  0  0  0  0  0  0  0  0  0
    5.1690   13.7880   18.7910 C   0  0  0  0  0  2  0  0  0  0  0  0
    5.5080   15.1270   18.5580 O   0  0  0  0  0  0  0  0  0  0  0  0
  1  7  1  0
  1  2  1  0
  2  8  1  0
  2  3  1  0
  3  9  1  0
  4  3  1  0
  4 10  1  0
  5 11  1  0
  5  4  1  0
  6  1  1  0
  6  5  1  0
 12 11  1  0
M  RAD  6   1   2   2   2   3   2   4   2   5   2  11   3
M  END
>  <MODEL>  (1) 
10

>  <REMARK>  (1) 
 VINA RESULT:    -4.674      1.879      4.141
 INTER + INTRA:          -5.678
 INTER:                  -5.431
 INTRA:                  -0.247
 UNBOUND:                -0.047
  Name = ALL
  6 active torsions:
  status: ('A' for Active; 'I' for Inactive)
    1  A    between atoms: C_1  and  O_7
    2  A    between atoms: C_2  and  O_8
    3  A    between atoms: C_3  and  O_9
    4  A    between atoms: C_4  and  O_10
    5  A    between atoms: C_5  and  C_6
    6  A    between atoms: C_6  and  O_12
                            x       y       z     vdW  Elec       q    Type
                         _______ _______ _______ _____ _____    ______ ____

>  <TORSDO>  (1) 
F 6

$$$$
