ALL
     RDKit          3D

 12 12  0  0  1  0  0  0  0  0999 V2000
    8.9160    9.8770   19.5170 C   0  0  0  0  0  3  0  0  0  0  0  0
    8.8350   11.4040   19.3140 C   0  0  0  0  0  3  0  0  0  0  0  0
    7.3770   11.8960   19.4240 C   0  0  0  0  0  3  0  0  0  0  0  0
    6.4210   11.0010   18.6010 C   0  0  0  0  0  3  0  0  0  0  0  0
    6.7120    9.5000   18.8540 C   0  0  0  0  0  3  0  0  0  0  0  0
    8.0760    9.2160   18.5890 O   0  0  0  0  0  0  0  0  0  0  0  0
   10.2380    9.4630   19.3000 O   0  0  0  0  0  0  0  0  0  0  0  0
    9.6270   12.0670   20.2660 O   0  0  0  0  0  0  0  0  0  0  0  0
    6.9620   12.0060   20.7650 O   0  0  0  0  0  0  0  0  0  0  0  0
    5.0870   11.2990   18.9260 O   0  0  0  0  0  0  0  0  0  0  0  0
    5.8600    8.6050   17.9430 C   0  0  0  0  0  2  0  0  0  0  0  0
    4.5020    8.7200   18.2710 O   0  0  0  0  0  0  0  0  0  0  0  0
  1  7  1  0
  2  3  1  0
  2  1  1  0
  2  8  1  0
  3  9  1  0
  4  5  1  0
  4 10  1  0
  4  3  1  0
  5 11  1  0
  6  5  1  0
  6  1  1  0
 11 12  1  0
M  RAD  6   1   2   2   2   3   2   4   2   5   2  11   3
M  END
>  <MODEL>  (1) 
5

>  <REMARK>  (1) 
 VINA RESULT:    -4.884      2.236      3.949
 INTER + INTRA:          -5.931
 INTER:                  -5.720
 INTRA:                  -0.211
 UNBOUND:                -0.047
  Name = ALL
  6 active torsions:
  status: ('A' for Active; 'I' for Inactive)
    1  A    between atoms: C_1  and  O_7
    2  A    between atoms: C_2  and  O_8
    3  A    between atoms: C_3  and  O_9
    4  A    between atoms: C_4  and  O_10
    5  A    between atoms: C_5  and  C_6
    6  A    between atoms: C_6  and  O_12
                            x       y       z     vdW  Elec       q    Type
                         _______ _______ _______ _____ _____    ______ ____

>  <TORSDO>  (1) 
F 6

$$$$
