
     RDKit          3D

 15 14  0  0  0  0  0  0  0  0999 V2000
   -3.6027    0.8035   -0.2465 N   0  0  0  0  0  0  0  0  0  0  0  0
   -2.2199    0.7219    0.0808 C   0  0  0  0  0  0  0  0  0  0  0  0
   -1.6829    1.7043    0.6663 O   0  0  0  0  0  0  0  0  0  0  0  0
   -1.4437   -0.4016   -0.2227 O   0  0  0  0  0  0  0  0  0  0  0  0
   -0.0902   -0.4587    0.1079 C   0  0  0  0  0  0  0  0  0  0  0  0
    0.4124    0.5328    0.6885 O   0  0  0  0  0  0  0  0  0  0  0  0
    0.7115   -1.5918   -0.1931 N   0  0  0  0  0  0  0  0  0  0  0  0
    2.7166   -1.5518    0.3530 I   0  0  0  0  0  3  0  0  0  0  0  0
    3.0174    0.2781    1.2593 N   0  0  0  0  0  0  0  0  0  0  0  0
    3.3959    1.2551    0.5544 C   0  0  0  0  0  0  0  0  0  0  0  0
    3.7779    2.2127   -0.1536 O   0  0  0  0  0  0  0  0  0  0  0  0
   -4.3580    0.4440    0.3929 H   0  0  0  0  0  0  0  0  0  0  0  0
   -3.8492    1.2452   -1.1694 H   0  0  0  0  0  0  0  0  0  0  0  0
    0.3113   -2.4230   -0.6742 H   0  0  0  0  0  0  0  0  0  0  0  0
    2.9035   -2.7708    1.5771 H   0  0  0  0  0  0  0  0  0  0  0  0
  1  2  1  0
  2  3  2  0
  2  4  1  0
  4  5  1  0
  5  6  2  0
  5  7  1  0
  7  8  1  0
  8  9  1  0
  9 10  2  0
 10 11  2  0
  1 12  1  0
  1 13  1  0
  7 14  1  0
  8 15  1  0
M  END
$$$$
