
     RDKit          3D

 47 49  0  0  0  0  0  0  0  0999 V2000
   -4.6425   -2.8664    1.1934 O   0  0  0  0  0  0  0  0  0  0  0  0
   -5.3542   -2.4735    0.2825 C   0  0  0  0  0  0  0  0  0  0  0  0
   -6.2267   -3.3520   -0.2281 F   0  0  0  0  0  0  0  0  0  0  0  0
   -5.3455   -1.2328   -0.2671 O   0  0  0  0  0  0  0  0  0  0  0  0
   -4.4030   -0.2908    0.2905 C   0  0  0  0  0  0  0  0  0  0  0  0
   -5.0175    1.1004    0.0746 C   0  0  0  0  0  0  0  0  0  0  0  0
   -3.9794    2.2041    0.1907 C   0  0  0  0  0  0  0  0  0  0  0  0
   -2.8702    2.0560   -0.8500 C   0  0  0  0  0  0  0  0  0  0  0  0
   -2.7513    0.6424   -1.4239 C   0  0  0  0  0  0  0  0  0  0  0  0
   -3.0170   -0.4630   -0.3890 C   0  0  0  0  0  0  0  0  0  0  0  0
   -1.9040   -0.4968    0.6398 C   0  0  0  0  0  0  0  0  0  0  0  0
   -1.4755   -1.7986    1.2656 C   0  0  0  0  0  0  0  0  0  0  0  0
   -0.5599   -1.1069    0.2820 C   0  0  0  0  0  0  0  0  0  0  0  0
    0.6883   -0.4505    0.7523 C   0  0  0  0  0  0  0  0  0  0  0  0
    0.8040    0.0711    1.8549 O   0  0  0  0  0  0  0  0  0  0  0  0
    1.8570   -0.4378   -0.2417 C   0  0  0  0  0  0  0  0  0  0  0  0
    1.7860   -1.0128   -1.3160 O   0  0  0  0  0  0  0  0  0  0  0  0
    2.9492    0.2666    0.2210 N   0  0  0  0  0  0  0  0  0  0  0  0
    4.2121    0.2632   -0.4753 C   0  0  0  0  0  0  0  0  0  0  0  0
    5.0366   -0.9932   -0.2013 C   0  0  0  0  0  0  0  0  0  0  0  0
    6.4875   -0.5833   -0.4521 C   0  0  0  0  0  0  0  0  0  0  0  0
    6.4961    0.9421   -0.5416 C   0  0  0  0  0  0  0  0  0  0  0  0
    5.1372    1.3842   -0.0203 C   0  0  0  0  0  0  0  0  0  0  0  0
   -4.3248   -0.4569    1.3734 H   0  0  0  0  0  0  0  0  0  0  0  0
   -5.5102    1.1534   -0.9054 H   0  0  0  0  0  0  0  0  0  0  0  0
   -5.8170    1.2570    0.8094 H   0  0  0  0  0  0  0  0  0  0  0  0
   -3.5428    2.1852    1.1968 H   0  0  0  0  0  0  0  0  0  0  0  0
   -4.4563    3.1849    0.0823 H   0  0  0  0  0  0  0  0  0  0  0  0
   -1.9171    2.3592   -0.3997 H   0  0  0  0  0  0  0  0  0  0  0  0
   -3.0467    2.7538   -1.6778 H   0  0  0  0  0  0  0  0  0  0  0  0
   -3.4748    0.5333   -2.2427 H   0  0  0  0  0  0  0  0  0  0  0  0
   -1.7599    0.5206   -1.8769 H   0  0  0  0  0  0  0  0  0  0  0  0
   -3.0040   -1.4173   -0.9329 H   0  0  0  0  0  0  0  0  0  0  0  0
   -1.9023    0.3747    1.2878 H   0  0  0  0  0  0  0  0  0  0  0  0
   -1.9534   -2.7192    0.9493 H   0  0  0  0  0  0  0  0  0  0  0  0
   -1.2124   -1.7880    2.3187 H   0  0  0  0  0  0  0  0  0  0  0  0
   -0.4845   -1.5816   -0.6931 H   0  0  0  0  0  0  0  0  0  0  0  0
    2.8986    0.5771    1.1890 H   0  0  0  0  0  0  0  0  0  0  0  0
    4.0213    0.3468   -1.5531 H   0  0  0  0  0  0  0  0  0  0  0  0
    4.9214   -1.3170    0.8410 H   0  0  0  0  0  0  0  0  0  0  0  0
    4.7316   -1.8321   -0.8353 H   0  0  0  0  0  0  0  0  0  0  0  0
    6.8686   -1.0228   -1.3803 H   0  0  0  0  0  0  0  0  0  0  0  0
    7.1291   -0.9346    0.3633 H   0  0  0  0  0  0  0  0  0  0  0  0
    7.3198    1.3850    0.0263 H   0  0  0  0  0  0  0  0  0  0  0  0
    6.6120    1.2483   -1.5882 H   0  0  0  0  0  0  0  0  0  0  0  0
    5.1588    1.4587    1.0743 H   0  0  0  0  0  0  0  0  0  0  0  0
    4.8374    2.3599   -0.4151 H   0  0  0  0  0  0  0  0  0  0  0  0
  1  2  2  0
  2  3  1  0
  2  4  1  0
  4  5  1  0
  5  6  1  0
  6  7  1  0
  7  8  1  0
  8  9  1  0
  9 10  1  0
 10 11  1  0
 11 12  1  0
 12 13  1  0
 13 14  1  0
 14 15  2  0
 14 16  1  0
 16 17  2  0
 16 18  1  0
 18 19  1  0
 19 20  1  0
 20 21  1  0
 21 22  1  0
 22 23  1  0
 10  5  1  0
 13 11  1  0
 23 19  1  0
  5 24  1  0
  6 25  1  0
  6 26  1  0
  7 27  1  0
  7 28  1  0
  8 29  1  0
  8 30  1  0
  9 31  1  0
  9 32  1  0
 10 33  1  0
 11 34  1  0
 12 35  1  0
 12 36  1  0
 13 37  1  0
 18 38  1  0
 19 39  1  0
 20 40  1  0
 20 41  1  0
 21 42  1  0
 21 43  1  0
 22 44  1  0
 22 45  1  0
 23 46  1  0
 23 47  1  0
M  END
$$$$
