
     RDKit          3D

 26 26  0  0  0  0  0  0  0  0999 V2000
    5.6412   -0.4867   -1.8705 O   0  0  0  0  0  0  0  0  0  0  0  0
    4.5864   -0.5633   -0.8823 S   0  0  0  0  0  0  0  0  0  0  0  0
    4.8239   -0.3163    0.5273 O   0  0  0  0  0  0  0  0  0  0  0  0
    3.1979    0.8249   -1.4537 Cl  0  0  0  0  0  0  0  0  0  0  0  0
    3.6402   -2.4515   -1.0448 S   0  0  0  0  0  0  0  0  0  0  0  0
    2.8251   -2.5534    0.4348 N   0  0  0  0  0  0  0  0  0  0  0  0
    1.5204   -1.8900    0.4365 C   0  0  0  0  0  0  0  0  0  0  0  0
    0.4631   -1.3230    0.4306 C   0  0  0  0  0  0  0  0  0  0  0  0
   -0.8293   -0.6141    0.4093 C   0  0  0  0  0  0  0  0  0  0  0  0
   -0.7052    0.7428    1.1152 C   0  0  0  0  0  0  0  0  0  0  0  0
   -2.0094    1.5343    1.0494 C   0  0  0  0  0  0  0  0  0  0  0  0
   -2.4940    1.7014   -0.3875 C   0  0  0  0  0  0  0  0  0  0  0  0
   -2.6196    0.3569   -1.0973 C   0  0  0  0  0  0  0  0  0  0  0  0
   -1.3165   -0.4366   -1.0350 C   0  0  0  0  0  0  0  0  0  0  0  0
    3.4089   -2.2812    1.2318 H   0  0  0  0  0  0  0  0  0  0  0  0
   -1.5661   -1.2214    0.9518 H   0  0  0  0  0  0  0  0  0  0  0  0
   -0.4220    0.5970    2.1653 H   0  0  0  0  0  0  0  0  0  0  0  0
    0.0988    1.3345    0.6569 H   0  0  0  0  0  0  0  0  0  0  0  0
   -2.7789    1.0185    1.6368 H   0  0  0  0  0  0  0  0  0  0  0  0
   -1.8657    2.5197    1.5067 H   0  0  0  0  0  0  0  0  0  0  0  0
   -3.4627    2.2135   -0.3930 H   0  0  0  0  0  0  0  0  0  0  0  0
   -1.7915    2.3399   -0.9374 H   0  0  0  0  0  0  0  0  0  0  0  0
   -3.4245   -0.2270   -0.6341 H   0  0  0  0  0  0  0  0  0  0  0  0
   -2.9033    0.5176   -2.1435 H   0  0  0  0  0  0  0  0  0  0  0  0
   -1.4656   -1.4165   -1.5058 H   0  0  0  0  0  0  0  0  0  0  0  0
   -0.5514    0.0798   -1.6306 H   0  0  0  0  0  0  0  0  0  0  0  0
  1  2  2  0
  2  3  2  0
  2  4  1  0
  2  5  1  0
  5  6  1  0
  6  7  1  0
  7  8  3  0
  8  9  1  0
  9 10  1  0
 10 11  1  0
 11 12  1  0
 12 13  1  0
 13 14  1  0
 14  9  1  0
  6 15  1  0
  9 16  1  0
 10 17  1  0
 10 18  1  0
 11 19  1  0
 11 20  1  0
 12 21  1  0
 12 22  1  0
 13 23  1  0
 13 24  1  0
 14 25  1  0
 14 26  1  0
M  END
$$$$
