
     RDKit          3D

 28 30  0  0  0  0  0  0  0  0999 V2000
    5.3367   -1.0834   -0.4082 C   0  0  0  0  0  0  0  0  0  0  0  0
    6.3646   -0.2560    0.0159 C   0  0  0  0  0  0  0  0  0  0  0  0
    5.4806    1.1692    0.7852 S   0  0  0  0  0  0  0  0  0  0  0  0
    3.8317    0.5118    0.4604 C   0  0  0  0  0  0  0  0  0  0  0  0
    2.2908    1.2570    0.8783 S   0  0  0  0  0  0  0  0  0  0  0  0
    0.5080   -0.2004    0.1312 I   0  0  0  0  0  3  0  0  0  0  0  0
   -1.2173    0.9766   -0.0938 C   0  0  0  0  0  0  0  0  0  0  0  0
   -1.0498    2.2269   -0.6884 C   0  0  0  0  0  0  0  0  0  0  0  0
   -2.1259    2.9968   -0.8197 N   0  0  0  0  0  0  0  0  0  0  0  0
   -3.3703    2.6229   -0.4042 C   0  0  0  0  0  0  0  0  0  0  0  0
   -3.5119    1.3950    0.1747 C   0  0  0  0  0  0  0  0  0  0  0  0
   -2.4310    0.5208    0.3515 C   0  0  0  0  0  0  0  0  0  0  0  0
   -2.7109   -0.7722    0.9614 C   0  0  0  0  0  0  0  0  0  0  0  0
   -3.4710   -1.7236    0.0335 C   0  0  0  0  0  0  0  0  0  0  0  0
   -2.0758   -2.0530    0.5484 C   0  0  0  0  0  0  0  0  0  0  0  0
    4.0944   -0.7163   -0.1953 C   0  0  0  0  0  0  0  0  0  0  0  0
    5.6209   -2.0364   -0.9181 H   0  0  0  0  0  0  0  0  0  0  0  0
    7.4977   -0.3236   -0.0364 H   0  0  0  0  0  0  0  0  0  0  0  0
    0.9074   -0.6463   -1.4922 H   0  0  0  0  0  0  0  0  0  0  0  0
   -0.0971    2.5798   -1.0364 H   0  0  0  0  0  0  0  0  0  0  0  0
   -4.1966    3.3120   -0.5488 H   0  0  0  0  0  0  0  0  0  0  0  0
   -4.5184    1.1058    0.5048 H   0  0  0  0  0  0  0  0  0  0  0  0
   -3.1476   -0.7477    2.0004 H   0  0  0  0  0  0  0  0  0  0  0  0
   -4.2752   -2.3309    0.4502 H   0  0  0  0  0  0  0  0  0  0  0  0
   -3.5828   -1.4615   -1.0218 H   0  0  0  0  0  0  0  0  0  0  0  0
   -1.3349   -2.1670   -0.2365 H   0  0  0  0  0  0  0  0  0  0  0  0
   -2.0192   -2.8476    1.3515 H   0  0  0  0  0  0  0  0  0  0  0  0
    3.2030   -1.3086   -0.4966 H   0  0  0  0  0  0  0  0  0  0  0  0
  1  2  2  0
  2  3  1  0
  3  4  1  0
  4  5  1  0
  5  6  1  0
  6  7  1  0
  7  8  2  0
  8  9  1  0
  9 10  2  0
 10 11  1  0
 11 12  2  0
 12 13  1  0
 13 14  1  0
 14 15  1  0
  4 16  2  0
 16  1  1  0
 12  7  1  0
 15 13  1  0
  1 17  1  0
  2 18  1  0
  6 19  1  0
  8 20  1  0
 10 21  1  0
 11 22  1  0
 13 23  1  0
 14 24  1  0
 14 25  1  0
 15 26  1  0
 15 27  1  0
 16 28  1  0
M  END
$$$$
