
     RDKit          3D

 17 17  0  0  0  0  0  0  0  0999 V2000
    2.8096    0.4179    0.9588 C   0  0  0  0  0  0  0  0  0  0  0  0
    2.0177    0.6319   -0.2021 O   0  0  0  0  0  0  0  0  0  0  0  0
    1.5233   -0.7667   -0.9610 S   0  0  0  0  0  0  0  0  0  0  0  0
   -0.0955   -0.8306   -0.3244 C   0  0  0  0  0  0  0  0  0  0  0  0
   -1.2513   -1.1884   -1.2257 C   0  0  0  0  0  0  0  0  0  0  0  0
   -1.0994    0.2253   -0.7163 C   0  0  0  0  0  0  0  0  0  0  0  0
   -2.0055    0.7962    0.3047 C   0  0  0  0  0  0  0  0  0  0  0  0
   -2.4147   -0.1389    1.1933 F   0  0  0  0  0  0  0  0  0  0  0  0
   -1.3894    1.7810    0.9953 F   0  0  0  0  0  0  0  0  0  0  0  0
   -3.1059    1.3214   -0.2788 F   0  0  0  0  0  0  0  0  0  0  0  0
    3.0829    1.3942    1.3693 H   0  0  0  0  0  0  0  0  0  0  0  0
    2.2453   -0.1288    1.7218 H   0  0  0  0  0  0  0  0  0  0  0  0
    3.7306   -0.1195    0.7090 H   0  0  0  0  0  0  0  0  0  0  0  0
   -0.1408   -1.2091    0.6930 H   0  0  0  0  0  0  0  0  0  0  0  0
   -2.0399   -1.8071   -0.8107 H   0  0  0  0  0  0  0  0  0  0  0  0
   -1.0635   -1.3671   -2.2787 H   0  0  0  0  0  0  0  0  0  0  0  0
   -0.8037    0.9885   -1.4250 H   0  0  0  0  0  0  0  0  0  0  0  0
  1  2  1  0
  2  3  1  0
  3  4  1  0
  4  5  1  0
  5  6  1  0
  6  7  1  0
  7  8  1  0
  7  9  1  0
  7 10  1  0
  6  4  1  0
  1 11  1  0
  1 12  1  0
  1 13  1  0
  4 14  1  0
  5 15  1  0
  5 16  1  0
  6 17  1  0
M  END
$$$$
