BET
 OpenBabel09132600403D

  9  8  0  0  0  0  0  0  0  0999 V2000
   74.1620   20.7630   62.7170 C   0  0  0  0  0  2  0  0  0  0  0  0
   74.7540   20.6460   61.3520 N   0  0  0  0  0  4  0  0  0  0  0  0
   75.0850   19.2360   61.0360 C   0  0  0  0  0  1  0  0  0  0  0  0
   73.8300   21.1830   60.3250 C   0  0  0  0  0  1  0  0  0  0  0  0
   76.0070   21.4410   61.3200 C   0  0  0  0  0  1  0  0  0  0  0  0
   75.1300   20.4590   63.8320 C   0  0  0  0  0  0  0  0  0  0  0  0
   75.3590   19.2640   64.1640 O   0  0  0  0  0  0  0  0  0  0  0  0
   75.7710   21.4990   64.4980 O   0  0  0  0  0  0  0  0  0  0  0  0
   75.4050   22.4430   64.4610 H   0  0  0  0  0  0  0  0  0  0  0  0
  1  6  1  0  0  0  0
  2  1  1  0  0  0  0
  3  2  1  0  0  0  0
  4  2  1  0  0  0  0
  5  2  1  0  0  0  0
  6  7  2  0  0  0  0
  6  8  1  0  0  0  0
  9  8  1  0  0  0  0
M  END
>  <MODEL>
3

>  <REMARK>
 VINA RESULT:    -4.326      1.059      1.888
 INTER + INTRA:          -4.847
 INTER:                  -5.081
 INTRA:                   0.234
 UNBOUND:                 0.112
  Name = BET
  6 active torsions:
  status: ('A' for Active; 'I' for Inactive)
    1  A    between atoms: N_1  and  C_2
    2  A    between atoms: N_1  and  C_6
    3  A    between atoms: N_1  and  C_7
    4  A    between atoms: N_1  and  C_8
    5  A    between atoms: C_2  and  C_3
    6  A    between atoms: C_3  and  O_5
                            x       y       z     vdW  Elec       q    Type
                         _______ _______ _______ _____ _____    ______ ____

>  <TORSDO>
F 3

$$$$
