BET
 OpenBabel09132600403D

  9  8  0  0  0  0  0  0  0  0999 V2000
   75.6090   21.5480   61.5740 C   0  0  0  0  0  2  0  0  0  0  0  0
   74.4350   20.6730   61.8610 N   0  0  0  0  0  4  0  0  0  0  0  0
   74.8630   19.2760   62.1150 C   0  0  0  0  0  1  0  0  0  0  0  0
   73.6680   21.1770   63.0250 C   0  0  0  0  0  1  0  0  0  0  0  0
   73.5470   20.6820   60.6730 C   0  0  0  0  0  1  0  0  0  0  0  0
   76.7920   21.2990   62.4740 C   0  0  0  0  0  0  0  0  0  0  0  0
   77.8130   20.7080   62.0290 O   0  0  0  0  0  0  0  0  0  0  0  0
   76.7560   21.7160   63.8010 O   0  0  0  0  0  0  0  0  0  0  0  0
   77.6080   21.7970   64.3430 H   0  0  0  0  0  0  0  0  0  0  0  0
  1  2  1  0  0  0  0
  1  6  1  0  0  0  0
  2  3  1  0  0  0  0
  2  4  1  0  0  0  0
  5  2  1  0  0  0  0
  6  8  1  0  0  0  0
  7  6  2  0  0  0  0
  8  9  1  0  0  0  0
M  END
>  <MODEL>
6

>  <REMARK>
 VINA RESULT:    -3.422      1.565      2.600
 INTER + INTRA:          -3.810
 INTER:                  -3.925
 INTRA:                   0.114
 UNBOUND:                 0.112
  Name = BET
  6 active torsions:
  status: ('A' for Active; 'I' for Inactive)
    1  A    between atoms: N_1  and  C_2
    2  A    between atoms: N_1  and  C_6
    3  A    between atoms: N_1  and  C_7
    4  A    between atoms: N_1  and  C_8
    5  A    between atoms: C_2  and  C_3
    6  A    between atoms: C_3  and  O_5
                            x       y       z     vdW  Elec       q    Type
                         _______ _______ _______ _____ _____    ______ ____

>  <TORSDO>
F 3

$$$$
