BET
 OpenBabel09132600403D

  9  8  0  0  0  0  0  0  0  0999 V2000
   77.6610   11.4600   71.8420 C   0  0  0  0  0  2  0  0  0  0  0  0
   77.4540   11.8850   73.2570 N   0  0  0  0  0  4  0  0  0  0  0  0
   77.2080   10.7150   74.1330 C   0  0  0  0  0  1  0  0  0  0  0  0
   78.6230   12.6460   73.7610 C   0  0  0  0  0  1  0  0  0  0  0  0
   76.2620   12.7680   73.3080 C   0  0  0  0  0  1  0  0  0  0  0  0
   78.4010   10.1540   71.6980 C   0  0  0  0  0  0  0  0  0  0  0  0
   79.5960   10.0570   72.0890 O   0  0  0  0  0  0  0  0  0  0  0  0
   77.7660    9.0550   71.1300 O   0  0  0  0  0  0  0  0  0  0  0  0
   77.0210    9.1780   70.4540 H   0  0  0  0  0  0  0  0  0  0  0  0
  1  2  1  0  0  0  0
  2  5  1  0  0  0  0
  2  4  1  0  0  0  0
  2  3  1  0  0  0  0
  6  1  1  0  0  0  0
  6  7  2  0  0  0  0
  8  6  1  0  0  0  0
  9  8  1  0  0  0  0
M  END
>  <MODEL>
7

>  <REMARK>
 VINA RESULT:    -3.392     14.312     14.916
 INTER + INTRA:          -3.776
 INTER:                  -3.944
 INTRA:                   0.168
 UNBOUND:                 0.112
  Name = BET
  6 active torsions:
  status: ('A' for Active; 'I' for Inactive)
    1  A    between atoms: N_1  and  C_2
    2  A    between atoms: N_1  and  C_6
    3  A    between atoms: N_1  and  C_7
    4  A    between atoms: N_1  and  C_8
    5  A    between atoms: C_2  and  C_3
    6  A    between atoms: C_3  and  O_5
                            x       y       z     vdW  Elec       q    Type
                         _______ _______ _______ _____ _____    ______ ____

>  <TORSDO>
F 3

$$$$
