BET
 OpenBabel09132600403D

  9  8  0  0  0  0  0  0  0  0999 V2000
   74.6420   20.0350   62.7490 C   0  0  0  0  0  2  0  0  0  0  0  0
   74.7890   20.4640   61.3280 N   0  0  0  0  0  4  0  0  0  0  0  0
   73.4800   20.8590   60.7540 C   0  0  0  0  0  1  0  0  0  0  0  0
   75.7440   21.5920   61.2090 C   0  0  0  0  0  1  0  0  0  0  0  0
   75.3170   19.3180   60.5480 C   0  0  0  0  0  1  0  0  0  0  0  0
   74.5420   21.1780   63.7260 C   0  0  0  0  0  0  0  0  0  0  0  0
   75.5170   21.4590   64.4750 O   0  0  0  0  0  0  0  0  0  0  0  0
   73.3700   21.9240   63.8050 O   0  0  0  0  0  0  0  0  0  0  0  0
   73.2920   22.8210   63.3380 H   0  0  0  0  0  0  0  0  0  0  0  0
  1  6  1  0  0  0  0
  2  1  1  0  0  0  0
  3  2  1  0  0  0  0
  4  2  1  0  0  0  0
  5  2  1  0  0  0  0
  6  8  1  0  0  0  0
  6  7  2  0  0  0  0
  9  8  1  0  0  0  0
M  END
>  <MODEL>
1

>  <REMARK>
 VINA RESULT:    -4.457      0.000      0.000
 INTER + INTRA:          -4.996
 INTER:                  -5.108
 INTRA:                   0.112
 UNBOUND:                 0.112
  Name = BET
  6 active torsions:
  status: ('A' for Active; 'I' for Inactive)
    1  A    between atoms: N_1  and  C_2
    2  A    between atoms: N_1  and  C_6
    3  A    between atoms: N_1  and  C_7
    4  A    between atoms: N_1  and  C_8
    5  A    between atoms: C_2  and  C_3
    6  A    between atoms: C_3  and  O_5
                            x       y       z     vdW  Elec       q    Type
                         _______ _______ _______ _____ _____    ______ ____

>  <TORSDO>
F 3

$$$$
